data_image0
_cell_length_a       48.3033
_cell_length_b       48.3033
_cell_length_c       48.3033
_cell_angle_alpha    60
_cell_angle_beta     60
_cell_angle_gamma    60

_symmetry_space_group_name_H-M    "P 1"
_symmetry_int_tables_number       1

loop_
  _symmetry_equiv_pos_as_xyz
  'x, y, z'

loop_
  _atom_site_label
  _atom_site_occupancy
  _atom_site_fract_x
  _atom_site_fract_y
  _atom_site_fract_z
  _atom_site_thermal_displace_type
  _atom_site_B_iso_or_equiv
  _atom_site_type_symbol
  Cu1      1.0000 0.50000  0.02728  0.97272  Biso   1.000  Cu
  Cu2      1.0000 0.02728  0.50000  0.50000  Biso   1.000  Cu
  Cu3      1.0000 0.97272  0.50000  0.50000  Biso   1.000  Cu
  Cu4      1.0000 0.50000  0.97272  0.02728  Biso   1.000  Cu
  Cu5      1.0000 0.50000  0.97272  0.50000  Biso   1.000  Cu
  Cu6      1.0000 0.02728  0.50000  0.97272  Biso   1.000  Cu
  Cu7      1.0000 0.97272  0.50000  0.02728  Biso   1.000  Cu
  Cu8      1.0000 0.50000  0.02728  0.50000  Biso   1.000  Cu
  Cu9      1.0000 0.50000  0.50000  0.02728  Biso   1.000  Cu
  Cu10     1.0000 0.02728  0.97272  0.50000  Biso   1.000  Cu
  Cu11     1.0000 0.97272  0.02728  0.50000  Biso   1.000  Cu
  Cu12     1.0000 0.50000  0.50000  0.97272  Biso   1.000  Cu
  H1       1.0000 0.52450  0.16270  0.07810  Biso   1.000  H
  H2       1.0000 0.52040  0.13580  0.05120  Biso   1.000  H
  H3       1.0000 0.52310  0.11230  0.02730  Biso   1.000  H
  H4       1.0000 0.51490  0.08690  0.00190  Biso   1.000  H
  H5       1.0000 0.16270  0.52450  0.23470  Biso   1.000  H
  H6       1.0000 0.13580  0.52040  0.29260  Biso   1.000  H
  H7       1.0000 0.11230  0.52310  0.33730  Biso   1.000  H
  H8       1.0000 0.08690  0.51490  0.39630  Biso   1.000  H
  H9       1.0000 0.07810  0.23470  0.52450  Biso   1.000  H
  H10      1.0000 0.05120  0.29260  0.52040  Biso   1.000  H
  H11      1.0000 0.02730  0.33730  0.52310  Biso   1.000  H
  H12      1.0000 0.00190  0.39630  0.51490  Biso   1.000  H
  H13      1.0000 0.23470  0.07810  0.16270  Biso   1.000  H
  H14      1.0000 0.29260  0.05120  0.13580  Biso   1.000  H
  H15      1.0000 0.33730  0.02730  0.11230  Biso   1.000  H
  H16      1.0000 0.39630  0.00190  0.08690  Biso   1.000  H
  H17      1.0000 0.52450  0.07810  0.23470  Biso   1.000  H
  H18      1.0000 0.52040  0.05120  0.29260  Biso   1.000  H
  H19      1.0000 0.52310  0.02730  0.33730  Biso   1.000  H
  H20      1.0000 0.51490  0.00190  0.39630  Biso   1.000  H
  H21      1.0000 0.16270  0.23470  0.07810  Biso   1.000  H
  H22      1.0000 0.13580  0.29260  0.05120  Biso   1.000  H
  H23      1.0000 0.11230  0.33730  0.02730  Biso   1.000  H
  H24      1.0000 0.08690  0.39630  0.00190  Biso   1.000  H
  H25      1.0000 0.07810  0.52450  0.16270  Biso   1.000  H
  H26      1.0000 0.05120  0.52040  0.13580  Biso   1.000  H
  H27      1.0000 0.02730  0.52310  0.11230  Biso   1.000  H
  H28      1.0000 0.00190  0.51490  0.08690  Biso   1.000  H
  H29      1.0000 0.23470  0.16270  0.52450  Biso   1.000  H
  H30      1.0000 0.29260  0.13580  0.52040  Biso   1.000  H
  H31      1.0000 0.33730  0.11230  0.52310  Biso   1.000  H
  H32      1.0000 0.39630  0.08690  0.51490  Biso   1.000  H
  H33      1.0000 0.52450  0.23470  0.16270  Biso   1.000  H
  H34      1.0000 0.52040  0.29260  0.13580  Biso   1.000  H
  H35      1.0000 0.52310  0.33730  0.11230  Biso   1.000  H
  H36      1.0000 0.51490  0.39630  0.08690  Biso   1.000  H
  H37      1.0000 0.16270  0.07810  0.52450  Biso   1.000  H
  H38      1.0000 0.13580  0.05120  0.52040  Biso   1.000  H
  H39      1.0000 0.11230  0.02730  0.52310  Biso   1.000  H
  H40      1.0000 0.08690  0.00190  0.51490  Biso   1.000  H
  H41      1.0000 0.07810  0.16270  0.23470  Biso   1.000  H
  H42      1.0000 0.05120  0.13580  0.29260  Biso   1.000  H
  H43      1.0000 0.02730  0.11230  0.33730  Biso   1.000  H
  H44      1.0000 0.00190  0.08690  0.39630  Biso   1.000  H
  H45      1.0000 0.23470  0.52450  0.07810  Biso   1.000  H
  H46      1.0000 0.29260  0.52040  0.05120  Biso   1.000  H
  H47      1.0000 0.33730  0.52310  0.02730  Biso   1.000  H
  H48      1.0000 0.39630  0.51490  0.00190  Biso   1.000  H
  H49      1.0000 0.83730  0.47550  0.92190  Biso   1.000  H
  H50      1.0000 0.86420  0.47960  0.94880  Biso   1.000  H
  H51      1.0000 0.88770  0.47690  0.97270  Biso   1.000  H
  H52      1.0000 0.91310  0.48510  0.99810  Biso   1.000  H
  H53      1.0000 0.47550  0.83730  0.76530  Biso   1.000  H
  H54      1.0000 0.47960  0.86420  0.70740  Biso   1.000  H
  H55      1.0000 0.47690  0.88770  0.66270  Biso   1.000  H
  H56      1.0000 0.48510  0.91310  0.60370  Biso   1.000  H
  H57      1.0000 0.76530  0.92190  0.47550  Biso   1.000  H
  H58      1.0000 0.70740  0.94880  0.47960  Biso   1.000  H
  H59      1.0000 0.66270  0.97270  0.47690  Biso   1.000  H
  H60      1.0000 0.60370  0.99810  0.48510  Biso   1.000  H
  H61      1.0000 0.92190  0.76530  0.83730  Biso   1.000  H
  H62      1.0000 0.94880  0.70740  0.86420  Biso   1.000  H
  H63      1.0000 0.97270  0.66270  0.88770  Biso   1.000  H
  H64      1.0000 0.99810  0.60370  0.91310  Biso   1.000  H
  H65      1.0000 0.92190  0.47550  0.76530  Biso   1.000  H
  H66      1.0000 0.94880  0.47960  0.70740  Biso   1.000  H
  H67      1.0000 0.97270  0.47690  0.66270  Biso   1.000  H
  H68      1.0000 0.99810  0.48510  0.60370  Biso   1.000  H
  H69      1.0000 0.76530  0.83730  0.92190  Biso   1.000  H
  H70      1.0000 0.70740  0.86420  0.94880  Biso   1.000  H
  H71      1.0000 0.66270  0.88770  0.97270  Biso   1.000  H
  H72      1.0000 0.60370  0.91310  0.99810  Biso   1.000  H
  H73      1.0000 0.47550  0.92190  0.83730  Biso   1.000  H
  H74      1.0000 0.47960  0.94880  0.86420  Biso   1.000  H
  H75      1.0000 0.47690  0.97270  0.88770  Biso   1.000  H
  H76      1.0000 0.48510  0.99810  0.91310  Biso   1.000  H
  H77      1.0000 0.83730  0.76530  0.47550  Biso   1.000  H
  H78      1.0000 0.86420  0.70740  0.47960  Biso   1.000  H
  H79      1.0000 0.88770  0.66270  0.47690  Biso   1.000  H
  H80      1.0000 0.91310  0.60370  0.48510  Biso   1.000  H
  H81      1.0000 0.76530  0.47550  0.83730  Biso   1.000  H
  H82      1.0000 0.70740  0.47960  0.86420  Biso   1.000  H
  H83      1.0000 0.66270  0.47690  0.88770  Biso   1.000  H
  H84      1.0000 0.60370  0.48510  0.91310  Biso   1.000  H
  H85      1.0000 0.92190  0.83730  0.47550  Biso   1.000  H
  H86      1.0000 0.94880  0.86420  0.47960  Biso   1.000  H
  H87      1.0000 0.97270  0.88770  0.47690  Biso   1.000  H
  H88      1.0000 0.99810  0.91310  0.48510  Biso   1.000  H
  H89      1.0000 0.83730  0.92190  0.76530  Biso   1.000  H
  H90      1.0000 0.86420  0.94880  0.70740  Biso   1.000  H
  H91      1.0000 0.88770  0.97270  0.66270  Biso   1.000  H
  H92      1.0000 0.91310  0.99810  0.60370  Biso   1.000  H
  H93      1.0000 0.47550  0.76530  0.92190  Biso   1.000  H
  H94      1.0000 0.47960  0.70740  0.94880  Biso   1.000  H
  H95      1.0000 0.47690  0.66270  0.97270  Biso   1.000  H
  H96      1.0000 0.48510  0.60370  0.99810  Biso   1.000  H
  H97      1.0000 0.47550  0.83730  0.92190  Biso   1.000  H
  H98      1.0000 0.47960  0.86420  0.94880  Biso   1.000  H
  H99      1.0000 0.47690  0.88770  0.97270  Biso   1.000  H
  H100     1.0000 0.48510  0.91310  0.99810  Biso   1.000  H
  H101     1.0000 0.83730  0.47550  0.76530  Biso   1.000  H
  H102     1.0000 0.86420  0.47960  0.70740  Biso   1.000  H
  H103     1.0000 0.88770  0.47690  0.66270  Biso   1.000  H
  H104     1.0000 0.91310  0.48510  0.60370  Biso   1.000  H
  H105     1.0000 0.92190  0.76530  0.47550  Biso   1.000  H
  H106     1.0000 0.94880  0.70740  0.47960  Biso   1.000  H
  H107     1.0000 0.97270  0.66270  0.47690  Biso   1.000  H
  H108     1.0000 0.99810  0.60370  0.48510  Biso   1.000  H
  H109     1.0000 0.76530  0.92190  0.83730  Biso   1.000  H
  H110     1.0000 0.70740  0.94880  0.86420  Biso   1.000  H
  H111     1.0000 0.66270  0.97270  0.88770  Biso   1.000  H
  H112     1.0000 0.60370  0.99810  0.91310  Biso   1.000  H
  H113     1.0000 0.47550  0.92190  0.76530  Biso   1.000  H
  H114     1.0000 0.47960  0.94880  0.70740  Biso   1.000  H
  H115     1.0000 0.47690  0.97270  0.66270  Biso   1.000  H
  H116     1.0000 0.48510  0.99810  0.60370  Biso   1.000  H
  H117     1.0000 0.83730  0.76530  0.92190  Biso   1.000  H
  H118     1.0000 0.86420  0.70740  0.94880  Biso   1.000  H
  H119     1.0000 0.88770  0.66270  0.97270  Biso   1.000  H
  H120     1.0000 0.91310  0.60370  0.99810  Biso   1.000  H
  H121     1.0000 0.92190  0.47550  0.83730  Biso   1.000  H
  H122     1.0000 0.94880  0.47960  0.86420  Biso   1.000  H
  H123     1.0000 0.97270  0.47690  0.88770  Biso   1.000  H
  H124     1.0000 0.99810  0.48510  0.91310  Biso   1.000  H
  H125     1.0000 0.76530  0.83730  0.47550  Biso   1.000  H
  H126     1.0000 0.70740  0.86420  0.47960  Biso   1.000  H
  H127     1.0000 0.66270  0.88770  0.47690  Biso   1.000  H
  H128     1.0000 0.60370  0.91310  0.48510  Biso   1.000  H
  H129     1.0000 0.47550  0.76530  0.83730  Biso   1.000  H
  H130     1.0000 0.47960  0.70740  0.86420  Biso   1.000  H
  H131     1.0000 0.47690  0.66270  0.88770  Biso   1.000  H
  H132     1.0000 0.48510  0.60370  0.91310  Biso   1.000  H
  H133     1.0000 0.83730  0.92190  0.47550  Biso   1.000  H
  H134     1.0000 0.86420  0.94880  0.47960  Biso   1.000  H
  H135     1.0000 0.88770  0.97270  0.47690  Biso   1.000  H
  H136     1.0000 0.91310  0.99810  0.48510  Biso   1.000  H
  H137     1.0000 0.92190  0.83730  0.76530  Biso   1.000  H
  H138     1.0000 0.94880  0.86420  0.70740  Biso   1.000  H
  H139     1.0000 0.97270  0.88770  0.66270  Biso   1.000  H
  H140     1.0000 0.99810  0.91310  0.60370  Biso   1.000  H
  H141     1.0000 0.76530  0.47550  0.92190  Biso   1.000  H
  H142     1.0000 0.70740  0.47960  0.94880  Biso   1.000  H
  H143     1.0000 0.66270  0.47690  0.97270  Biso   1.000  H
  H144     1.0000 0.60370  0.48510  0.99810  Biso   1.000  H
  H145     1.0000 0.16270  0.52450  0.07810  Biso   1.000  H
  H146     1.0000 0.13580  0.52040  0.05120  Biso   1.000  H
  H147     1.0000 0.11230  0.52310  0.02730  Biso   1.000  H
  H148     1.0000 0.08690  0.51490  0.00190  Biso   1.000  H
  H149     1.0000 0.52450  0.16270  0.23470  Biso   1.000  H
  H150     1.0000 0.52040  0.13580  0.29260  Biso   1.000  H
  H151     1.0000 0.52310  0.11230  0.33730  Biso   1.000  H
  H152     1.0000 0.51490  0.08690  0.39630  Biso   1.000  H
  H153     1.0000 0.23470  0.07810  0.52450  Biso   1.000  H
  H154     1.0000 0.29260  0.05120  0.52040  Biso   1.000  H
  H155     1.0000 0.33730  0.02730  0.52310  Biso   1.000  H
  H156     1.0000 0.39630  0.00190  0.51490  Biso   1.000  H
  H157     1.0000 0.07810  0.23470  0.16270  Biso   1.000  H
  H158     1.0000 0.05120  0.29260  0.13580  Biso   1.000  H
  H159     1.0000 0.02730  0.33730  0.11230  Biso   1.000  H
  H160     1.0000 0.00190  0.39630  0.08690  Biso   1.000  H
  H161     1.0000 0.07810  0.52450  0.23470  Biso   1.000  H
  H162     1.0000 0.05120  0.52040  0.29260  Biso   1.000  H
  H163     1.0000 0.02730  0.52310  0.33730  Biso   1.000  H
  H164     1.0000 0.00190  0.51490  0.39630  Biso   1.000  H
  H165     1.0000 0.23470  0.16270  0.07810  Biso   1.000  H
  H166     1.0000 0.29260  0.13580  0.05120  Biso   1.000  H
  H167     1.0000 0.33730  0.11230  0.02730  Biso   1.000  H
  H168     1.0000 0.39630  0.08690  0.00190  Biso   1.000  H
  H169     1.0000 0.52450  0.07810  0.16270  Biso   1.000  H
  H170     1.0000 0.52040  0.05120  0.13580  Biso   1.000  H
  H171     1.0000 0.52310  0.02730  0.11230  Biso   1.000  H
  H172     1.0000 0.51490  0.00190  0.08690  Biso   1.000  H
  H173     1.0000 0.16270  0.23470  0.52450  Biso   1.000  H
  H174     1.0000 0.13580  0.29260  0.52040  Biso   1.000  H
  H175     1.0000 0.11230  0.33730  0.52310  Biso   1.000  H
  H176     1.0000 0.08690  0.39630  0.51490  Biso   1.000  H
  H177     1.0000 0.23470  0.52450  0.16270  Biso   1.000  H
  H178     1.0000 0.29260  0.52040  0.13580  Biso   1.000  H
  H179     1.0000 0.33730  0.52310  0.11230  Biso   1.000  H
  H180     1.0000 0.39630  0.51490  0.08690  Biso   1.000  H
  H181     1.0000 0.07810  0.16270  0.52450  Biso   1.000  H
  H182     1.0000 0.05120  0.13580  0.52040  Biso   1.000  H
  H183     1.0000 0.02730  0.11230  0.52310  Biso   1.000  H
  H184     1.0000 0.00190  0.08690  0.51490  Biso   1.000  H
  H185     1.0000 0.16270  0.07810  0.23470  Biso   1.000  H
  H186     1.0000 0.13580  0.05120  0.29260  Biso   1.000  H
  H187     1.0000 0.11230  0.02730  0.33730  Biso   1.000  H
  H188     1.0000 0.08690  0.00190  0.39630  Biso   1.000  H
  H189     1.0000 0.52450  0.23470  0.07810  Biso   1.000  H
  H190     1.0000 0.52040  0.29260  0.05120  Biso   1.000  H
  H191     1.0000 0.52310  0.33730  0.02730  Biso   1.000  H
  H192     1.0000 0.51490  0.39630  0.00190  Biso   1.000  H
  H193     1.0000 0.53160  0.18440  0.09960  Biso   1.000  H
  H194     1.0000 0.18440  0.53160  0.18440  Biso   1.000  H
  H195     1.0000 0.09960  0.18440  0.53160  Biso   1.000  H
  H196     1.0000 0.18440  0.09960  0.18440  Biso   1.000  H
  H197     1.0000 0.53160  0.09960  0.18440  Biso   1.000  H
  H198     1.0000 0.18440  0.18440  0.09960  Biso   1.000  H
  H199     1.0000 0.09960  0.53160  0.18440  Biso   1.000  H
  H200     1.0000 0.18440  0.18440  0.53160  Biso   1.000  H
  H201     1.0000 0.53160  0.18440  0.18440  Biso   1.000  H
  H202     1.0000 0.18440  0.09960  0.53160  Biso   1.000  H
  H203     1.0000 0.09960  0.18440  0.18440  Biso   1.000  H
  H204     1.0000 0.18440  0.53160  0.09960  Biso   1.000  H
  H205     1.0000 0.81560  0.46840  0.90040  Biso   1.000  H
  H206     1.0000 0.46840  0.81560  0.81560  Biso   1.000  H
  H207     1.0000 0.81560  0.90040  0.46840  Biso   1.000  H
  H208     1.0000 0.90040  0.81560  0.81560  Biso   1.000  H
  H209     1.0000 0.90040  0.46840  0.81560  Biso   1.000  H
  H210     1.0000 0.81560  0.81560  0.90040  Biso   1.000  H
  H211     1.0000 0.46840  0.90040  0.81560  Biso   1.000  H
  H212     1.0000 0.81560  0.81560  0.46840  Biso   1.000  H
  H213     1.0000 0.81560  0.46840  0.81560  Biso   1.000  H
  H214     1.0000 0.90040  0.81560  0.46840  Biso   1.000  H
  H215     1.0000 0.81560  0.90040  0.81560  Biso   1.000  H
  H216     1.0000 0.46840  0.81560  0.90040  Biso   1.000  H
  C1       1.0000 0.52445  0.14055  0.08897  Biso   1.000  C
  C2       1.0000 0.52266  0.12428  0.07252  Biso   1.000  C
  C3       1.0000 0.52188  0.09044  0.03856  Biso   1.000  C
  C4       1.0000 0.51745  0.07497  0.02309  Biso   1.000  C
  C5       1.0000 0.14055  0.52445  0.24603  Biso   1.000  C
  C6       1.0000 0.12428  0.52266  0.28054  Biso   1.000  C
  C7       1.0000 0.09044  0.52188  0.34912  Biso   1.000  C
  C8       1.0000 0.07497  0.51745  0.38449  Biso   1.000  C
  C9       1.0000 0.08897  0.24603  0.52445  Biso   1.000  C
  C10      1.0000 0.07252  0.28054  0.52266  Biso   1.000  C
  C11      1.0000 0.03856  0.34912  0.52188  Biso   1.000  C
  C12      1.0000 0.02309  0.38449  0.51745  Biso   1.000  C
  C13      1.0000 0.24603  0.08897  0.14055  Biso   1.000  C
  C14      1.0000 0.28054  0.07252  0.12428  Biso   1.000  C
  C15      1.0000 0.34912  0.03856  0.09044  Biso   1.000  C
  C16      1.0000 0.38449  0.02309  0.07497  Biso   1.000  C
  C17      1.0000 0.52445  0.08897  0.24603  Biso   1.000  C
  C18      1.0000 0.52266  0.07252  0.28054  Biso   1.000  C
  C19      1.0000 0.52188  0.03856  0.34912  Biso   1.000  C
  C20      1.0000 0.51745  0.02309  0.38449  Biso   1.000  C
  C21      1.0000 0.14055  0.24603  0.08897  Biso   1.000  C
  C22      1.0000 0.12428  0.28054  0.07252  Biso   1.000  C
  C23      1.0000 0.09044  0.34912  0.03856  Biso   1.000  C
  C24      1.0000 0.07497  0.38449  0.02309  Biso   1.000  C
  C25      1.0000 0.08897  0.52445  0.14055  Biso   1.000  C
  C26      1.0000 0.07252  0.52266  0.12428  Biso   1.000  C
  C27      1.0000 0.03856  0.52188  0.09044  Biso   1.000  C
  C28      1.0000 0.02309  0.51745  0.07497  Biso   1.000  C
  C29      1.0000 0.24603  0.14055  0.52445  Biso   1.000  C
  C30      1.0000 0.28054  0.12428  0.52266  Biso   1.000  C
  C31      1.0000 0.34912  0.09044  0.52188  Biso   1.000  C
  C32      1.0000 0.38449  0.07497  0.51745  Biso   1.000  C
  C33      1.0000 0.52445  0.24603  0.14055  Biso   1.000  C
  C34      1.0000 0.52266  0.28054  0.12428  Biso   1.000  C
  C35      1.0000 0.52188  0.34912  0.09044  Biso   1.000  C
  C36      1.0000 0.51745  0.38449  0.07497  Biso   1.000  C
  C37      1.0000 0.14055  0.08897  0.52445  Biso   1.000  C
  C38      1.0000 0.12428  0.07252  0.52266  Biso   1.000  C
  C39      1.0000 0.09044  0.03856  0.52188  Biso   1.000  C
  C40      1.0000 0.07497  0.02309  0.51745  Biso   1.000  C
  C41      1.0000 0.08897  0.14055  0.24603  Biso   1.000  C
  C42      1.0000 0.07252  0.12428  0.28054  Biso   1.000  C
  C43      1.0000 0.03856  0.09044  0.34912  Biso   1.000  C
  C44      1.0000 0.02309  0.07497  0.38449  Biso   1.000  C
  C45      1.0000 0.24603  0.52445  0.08897  Biso   1.000  C
  C46      1.0000 0.28054  0.52266  0.07252  Biso   1.000  C
  C47      1.0000 0.34912  0.52188  0.03856  Biso   1.000  C
  C48      1.0000 0.38449  0.51745  0.02309  Biso   1.000  C
  C49      1.0000 0.85945  0.47555  0.91103  Biso   1.000  C
  C50      1.0000 0.87572  0.47734  0.92748  Biso   1.000  C
  C51      1.0000 0.90956  0.47812  0.96144  Biso   1.000  C
  C52      1.0000 0.92503  0.48255  0.97691  Biso   1.000  C
  C53      1.0000 0.47555  0.85945  0.75397  Biso   1.000  C
  C54      1.0000 0.47734  0.87572  0.71946  Biso   1.000  C
  C55      1.0000 0.47812  0.90956  0.65088  Biso   1.000  C
  C56      1.0000 0.48255  0.92503  0.61551  Biso   1.000  C
  C57      1.0000 0.75397  0.91103  0.47555  Biso   1.000  C
  C58      1.0000 0.71946  0.92748  0.47734  Biso   1.000  C
  C59      1.0000 0.65088  0.96144  0.47812  Biso   1.000  C
  C60      1.0000 0.61551  0.97691  0.48255  Biso   1.000  C
  C61      1.0000 0.91103  0.75397  0.85945  Biso   1.000  C
  C62      1.0000 0.92748  0.71946  0.87572  Biso   1.000  C
  C63      1.0000 0.96144  0.65088  0.90956  Biso   1.000  C
  C64      1.0000 0.97691  0.61551  0.92503  Biso   1.000  C
  C65      1.0000 0.91103  0.47555  0.75397  Biso   1.000  C
  C66      1.0000 0.92748  0.47734  0.71946  Biso   1.000  C
  C67      1.0000 0.96144  0.47812  0.65088  Biso   1.000  C
  C68      1.0000 0.97691  0.48255  0.61551  Biso   1.000  C
  C69      1.0000 0.75397  0.85945  0.91103  Biso   1.000  C
  C70      1.0000 0.71946  0.87572  0.92748  Biso   1.000  C
  C71      1.0000 0.65088  0.90956  0.96144  Biso   1.000  C
  C72      1.0000 0.61551  0.92503  0.97691  Biso   1.000  C
  C73      1.0000 0.47555  0.91103  0.85945  Biso   1.000  C
  C74      1.0000 0.47734  0.92748  0.87572  Biso   1.000  C
  C75      1.0000 0.47812  0.96144  0.90956  Biso   1.000  C
  C76      1.0000 0.48255  0.97691  0.92503  Biso   1.000  C
  C77      1.0000 0.85945  0.75397  0.47555  Biso   1.000  C
  C78      1.0000 0.87572  0.71946  0.47734  Biso   1.000  C
  C79      1.0000 0.90956  0.65088  0.47812  Biso   1.000  C
  C80      1.0000 0.92503  0.61551  0.48255  Biso   1.000  C
  C81      1.0000 0.75397  0.47555  0.85945  Biso   1.000  C
  C82      1.0000 0.71946  0.47734  0.87572  Biso   1.000  C
  C83      1.0000 0.65088  0.47812  0.90956  Biso   1.000  C
  C84      1.0000 0.61551  0.48255  0.92503  Biso   1.000  C
  C85      1.0000 0.91103  0.85945  0.47555  Biso   1.000  C
  C86      1.0000 0.92748  0.87572  0.47734  Biso   1.000  C
  C87      1.0000 0.96144  0.90956  0.47812  Biso   1.000  C
  C88      1.0000 0.97691  0.92503  0.48255  Biso   1.000  C
  C89      1.0000 0.85945  0.91103  0.75397  Biso   1.000  C
  C90      1.0000 0.87572  0.92748  0.71946  Biso   1.000  C
  C91      1.0000 0.90956  0.96144  0.65088  Biso   1.000  C
  C92      1.0000 0.92503  0.97691  0.61551  Biso   1.000  C
  C93      1.0000 0.47555  0.75397  0.91103  Biso   1.000  C
  C94      1.0000 0.47734  0.71946  0.92748  Biso   1.000  C
  C95      1.0000 0.47812  0.65088  0.96144  Biso   1.000  C
  C96      1.0000 0.48255  0.61551  0.97691  Biso   1.000  C
  C97      1.0000 0.47555  0.85945  0.91103  Biso   1.000  C
  C98      1.0000 0.47734  0.87572  0.92748  Biso   1.000  C
  C99      1.0000 0.47812  0.90956  0.96144  Biso   1.000  C
  C100     1.0000 0.48255  0.92503  0.97691  Biso   1.000  C
  C101     1.0000 0.85945  0.47555  0.75397  Biso   1.000  C
  C102     1.0000 0.87572  0.47734  0.71946  Biso   1.000  C
  C103     1.0000 0.90956  0.47812  0.65088  Biso   1.000  C
  C104     1.0000 0.92503  0.48255  0.61551  Biso   1.000  C
  C105     1.0000 0.91103  0.75397  0.47555  Biso   1.000  C
  C106     1.0000 0.92748  0.71946  0.47734  Biso   1.000  C
  C107     1.0000 0.96144  0.65088  0.47812  Biso   1.000  C
  C108     1.0000 0.97691  0.61551  0.48255  Biso   1.000  C
  C109     1.0000 0.75397  0.91103  0.85945  Biso   1.000  C
  C110     1.0000 0.71946  0.92748  0.87572  Biso   1.000  C
  C111     1.0000 0.65088  0.96144  0.90956  Biso   1.000  C
  C112     1.0000 0.61551  0.97691  0.92503  Biso   1.000  C
  C113     1.0000 0.47555  0.91103  0.75397  Biso   1.000  C
  C114     1.0000 0.47734  0.92748  0.71946  Biso   1.000  C
  C115     1.0000 0.47812  0.96144  0.65088  Biso   1.000  C
  C116     1.0000 0.48255  0.97691  0.61551  Biso   1.000  C
  C117     1.0000 0.85945  0.75397  0.91103  Biso   1.000  C
  C118     1.0000 0.87572  0.71946  0.92748  Biso   1.000  C
  C119     1.0000 0.90956  0.65088  0.96144  Biso   1.000  C
  C120     1.0000 0.92503  0.61551  0.97691  Biso   1.000  C
  C121     1.0000 0.91103  0.47555  0.85945  Biso   1.000  C
  C122     1.0000 0.92748  0.47734  0.87572  Biso   1.000  C
  C123     1.0000 0.96144  0.47812  0.90956  Biso   1.000  C
  C124     1.0000 0.97691  0.48255  0.92503  Biso   1.000  C
  C125     1.0000 0.75397  0.85945  0.47555  Biso   1.000  C
  C126     1.0000 0.71946  0.87572  0.47734  Biso   1.000  C
  C127     1.0000 0.65088  0.90956  0.47812  Biso   1.000  C
  C128     1.0000 0.61551  0.92503  0.48255  Biso   1.000  C
  C129     1.0000 0.47555  0.75397  0.85945  Biso   1.000  C
  C130     1.0000 0.47734  0.71946  0.87572  Biso   1.000  C
  C131     1.0000 0.47812  0.65088  0.90956  Biso   1.000  C
  C132     1.0000 0.48255  0.61551  0.92503  Biso   1.000  C
  C133     1.0000 0.85945  0.91103  0.47555  Biso   1.000  C
  C134     1.0000 0.87572  0.92748  0.47734  Biso   1.000  C
  C135     1.0000 0.90956  0.96144  0.47812  Biso   1.000  C
  C136     1.0000 0.92503  0.97691  0.48255  Biso   1.000  C
  C137     1.0000 0.91103  0.85945  0.75397  Biso   1.000  C
  C138     1.0000 0.92748  0.87572  0.71946  Biso   1.000  C
  C139     1.0000 0.96144  0.90956  0.65088  Biso   1.000  C
  C140     1.0000 0.97691  0.92503  0.61551  Biso   1.000  C
  C141     1.0000 0.75397  0.47555  0.91103  Biso   1.000  C
  C142     1.0000 0.71946  0.47734  0.92748  Biso   1.000  C
  C143     1.0000 0.65088  0.47812  0.96144  Biso   1.000  C
  C144     1.0000 0.61551  0.48255  0.97691  Biso   1.000  C
  C145     1.0000 0.14055  0.52445  0.08897  Biso   1.000  C
  C146     1.0000 0.12428  0.52266  0.07252  Biso   1.000  C
  C147     1.0000 0.09044  0.52188  0.03856  Biso   1.000  C
  C148     1.0000 0.07497  0.51745  0.02309  Biso   1.000  C
  C149     1.0000 0.52445  0.14055  0.24603  Biso   1.000  C
  C150     1.0000 0.52266  0.12428  0.28054  Biso   1.000  C
  C151     1.0000 0.52188  0.09044  0.34912  Biso   1.000  C
  C152     1.0000 0.51745  0.07497  0.38449  Biso   1.000  C
  C153     1.0000 0.24603  0.08897  0.52445  Biso   1.000  C
  C154     1.0000 0.28054  0.07252  0.52266  Biso   1.000  C
  C155     1.0000 0.34912  0.03856  0.52188  Biso   1.000  C
  C156     1.0000 0.38449  0.02309  0.51745  Biso   1.000  C
  C157     1.0000 0.08897  0.24603  0.14055  Biso   1.000  C
  C158     1.0000 0.07252  0.28054  0.12428  Biso   1.000  C
  C159     1.0000 0.03856  0.34912  0.09044  Biso   1.000  C
  C160     1.0000 0.02309  0.38449  0.07497  Biso   1.000  C
  C161     1.0000 0.08897  0.52445  0.24603  Biso   1.000  C
  C162     1.0000 0.07252  0.52266  0.28054  Biso   1.000  C
  C163     1.0000 0.03856  0.52188  0.34912  Biso   1.000  C
  C164     1.0000 0.02309  0.51745  0.38449  Biso   1.000  C
  C165     1.0000 0.24603  0.14055  0.08897  Biso   1.000  C
  C166     1.0000 0.28054  0.12428  0.07252  Biso   1.000  C
  C167     1.0000 0.34912  0.09044  0.03856  Biso   1.000  C
  C168     1.0000 0.38449  0.07497  0.02309  Biso   1.000  C
  C169     1.0000 0.52445  0.08897  0.14055  Biso   1.000  C
  C170     1.0000 0.52266  0.07252  0.12428  Biso   1.000  C
  C171     1.0000 0.52188  0.03856  0.09044  Biso   1.000  C
  C172     1.0000 0.51745  0.02309  0.07497  Biso   1.000  C
  C173     1.0000 0.14055  0.24603  0.52445  Biso   1.000  C
  C174     1.0000 0.12428  0.28054  0.52266  Biso   1.000  C
  C175     1.0000 0.09044  0.34912  0.52188  Biso   1.000  C
  C176     1.0000 0.07497  0.38449  0.51745  Biso   1.000  C
  C177     1.0000 0.24603  0.52445  0.14055  Biso   1.000  C
  C178     1.0000 0.28054  0.52266  0.12428  Biso   1.000  C
  C179     1.0000 0.34912  0.52188  0.09044  Biso   1.000  C
  C180     1.0000 0.38449  0.51745  0.07497  Biso   1.000  C
  C181     1.0000 0.08897  0.14055  0.52445  Biso   1.000  C
  C182     1.0000 0.07252  0.12428  0.52266  Biso   1.000  C
  C183     1.0000 0.03856  0.09044  0.52188  Biso   1.000  C
  C184     1.0000 0.02309  0.07497  0.51745  Biso   1.000  C
  C185     1.0000 0.14055  0.08897  0.24603  Biso   1.000  C
  C186     1.0000 0.12428  0.07252  0.28054  Biso   1.000  C
  C187     1.0000 0.09044  0.03856  0.34912  Biso   1.000  C
  C188     1.0000 0.07497  0.02309  0.38449  Biso   1.000  C
  C189     1.0000 0.52445  0.24603  0.08897  Biso   1.000  C
  C190     1.0000 0.52266  0.28054  0.07252  Biso   1.000  C
  C191     1.0000 0.52188  0.34912  0.03856  Biso   1.000  C
  C192     1.0000 0.51745  0.38449  0.02309  Biso   1.000  C
  C193     1.0000 0.53179  0.17323  0.12175  Biso   1.000  C
  C194     1.0000 0.17323  0.53179  0.17323  Biso   1.000  C
  C195     1.0000 0.12175  0.17323  0.53179  Biso   1.000  C
  C196     1.0000 0.17323  0.12175  0.17323  Biso   1.000  C
  C197     1.0000 0.53179  0.12175  0.17323  Biso   1.000  C
  C198     1.0000 0.17323  0.17323  0.12175  Biso   1.000  C
  C199     1.0000 0.12175  0.53179  0.17323  Biso   1.000  C
  C200     1.0000 0.17323  0.17323  0.53179  Biso   1.000  C
  C201     1.0000 0.53179  0.17323  0.17323  Biso   1.000  C
  C202     1.0000 0.17323  0.12175  0.53179  Biso   1.000  C
  C203     1.0000 0.12175  0.17323  0.17323  Biso   1.000  C
  C204     1.0000 0.17323  0.53179  0.12175  Biso   1.000  C
  C205     1.0000 0.82677  0.46821  0.87825  Biso   1.000  C
  C206     1.0000 0.46821  0.82677  0.82677  Biso   1.000  C
  C207     1.0000 0.82677  0.87825  0.46821  Biso   1.000  C
  C208     1.0000 0.87825  0.82677  0.82677  Biso   1.000  C
  C209     1.0000 0.87825  0.46821  0.82677  Biso   1.000  C
  C210     1.0000 0.82677  0.82677  0.87825  Biso   1.000  C
  C211     1.0000 0.46821  0.87825  0.82677  Biso   1.000  C
  C212     1.0000 0.82677  0.82677  0.46821  Biso   1.000  C
  C213     1.0000 0.82677  0.46821  0.82677  Biso   1.000  C
  C214     1.0000 0.87825  0.82677  0.46821  Biso   1.000  C
  C215     1.0000 0.82677  0.87825  0.82677  Biso   1.000  C
  C216     1.0000 0.46821  0.82677  0.87825  Biso   1.000  C
  C217     1.0000 0.53200  0.13880  0.13880  Biso   1.000  C
  C218     1.0000 0.52610  0.12250  0.12250  Biso   1.000  C
  C219     1.0000 0.52440  0.08970  0.08970  Biso   1.000  C
  C220     1.0000 0.52431  0.07159  0.07159  Biso   1.000  C
  C221     1.0000 0.51702  0.04080  0.04080  Biso   1.000  C
  C222     1.0000 0.50972  0.02520  0.02520  Biso   1.000  C
  C223     1.0000 0.13880  0.53200  0.19040  Biso   1.000  C
  C224     1.0000 0.12250  0.52610  0.22890  Biso   1.000  C
  C225     1.0000 0.08970  0.52440  0.29620  Biso   1.000  C
  C226     1.0000 0.07159  0.52431  0.33251  Biso   1.000  C
  C227     1.0000 0.04080  0.51702  0.40138  Biso   1.000  C
  C228     1.0000 0.02520  0.50972  0.43988  Biso   1.000  C
  C229     1.0000 0.13880  0.19040  0.53200  Biso   1.000  C
  C230     1.0000 0.12250  0.22890  0.52610  Biso   1.000  C
  C231     1.0000 0.08970  0.29620  0.52440  Biso   1.000  C
  C232     1.0000 0.07159  0.33251  0.52431  Biso   1.000  C
  C233     1.0000 0.04080  0.40138  0.51702  Biso   1.000  C
  C234     1.0000 0.02520  0.43988  0.50972  Biso   1.000  C
  C235     1.0000 0.19040  0.13880  0.13880  Biso   1.000  C
  C236     1.0000 0.22890  0.12250  0.12250  Biso   1.000  C
  C237     1.0000 0.29620  0.08970  0.08970  Biso   1.000  C
  C238     1.0000 0.33251  0.07159  0.07159  Biso   1.000  C
  C239     1.0000 0.40138  0.04080  0.04080  Biso   1.000  C
  C240     1.0000 0.43988  0.02520  0.02520  Biso   1.000  C
  C241     1.0000 0.53200  0.13880  0.19040  Biso   1.000  C
  C242     1.0000 0.52610  0.12250  0.22890  Biso   1.000  C
  C243     1.0000 0.52440  0.08970  0.29620  Biso   1.000  C
  C244     1.0000 0.52431  0.07159  0.33251  Biso   1.000  C
  C245     1.0000 0.51702  0.04080  0.40138  Biso   1.000  C
  C246     1.0000 0.50972  0.02520  0.43988  Biso   1.000  C
  C247     1.0000 0.13880  0.19040  0.13880  Biso   1.000  C
  C248     1.0000 0.12250  0.22890  0.12250  Biso   1.000  C
  C249     1.0000 0.08970  0.29620  0.08970  Biso   1.000  C
  C250     1.0000 0.07159  0.33251  0.07159  Biso   1.000  C
  C251     1.0000 0.04080  0.40138  0.04080  Biso   1.000  C
  C252     1.0000 0.02520  0.43988  0.02520  Biso   1.000  C
  C253     1.0000 0.13880  0.53200  0.13880  Biso   1.000  C
  C254     1.0000 0.12250  0.52610  0.12250  Biso   1.000  C
  C255     1.0000 0.08970  0.52440  0.08970  Biso   1.000  C
  C256     1.0000 0.07159  0.52431  0.07159  Biso   1.000  C
  C257     1.0000 0.04080  0.51702  0.04080  Biso   1.000  C
  C258     1.0000 0.02520  0.50972  0.02520  Biso   1.000  C
  C259     1.0000 0.19040  0.13880  0.53200  Biso   1.000  C
  C260     1.0000 0.22890  0.12250  0.52610  Biso   1.000  C
  C261     1.0000 0.29620  0.08970  0.52440  Biso   1.000  C
  C262     1.0000 0.33251  0.07159  0.52431  Biso   1.000  C
  C263     1.0000 0.40138  0.04080  0.51702  Biso   1.000  C
  C264     1.0000 0.43988  0.02520  0.50972  Biso   1.000  C
  C265     1.0000 0.53200  0.19040  0.13880  Biso   1.000  C
  C266     1.0000 0.52610  0.22890  0.12250  Biso   1.000  C
  C267     1.0000 0.52440  0.29620  0.08970  Biso   1.000  C
  C268     1.0000 0.52431  0.33251  0.07159  Biso   1.000  C
  C269     1.0000 0.51702  0.40138  0.04080  Biso   1.000  C
  C270     1.0000 0.50972  0.43988  0.02520  Biso   1.000  C
  C271     1.0000 0.13880  0.13880  0.53200  Biso   1.000  C
  C272     1.0000 0.12250  0.12250  0.52610  Biso   1.000  C
  C273     1.0000 0.08970  0.08970  0.52440  Biso   1.000  C
  C274     1.0000 0.07159  0.07159  0.52431  Biso   1.000  C
  C275     1.0000 0.04080  0.04080  0.51702  Biso   1.000  C
  C276     1.0000 0.02520  0.02520  0.50972  Biso   1.000  C
  C277     1.0000 0.13880  0.13880  0.19040  Biso   1.000  C
  C278     1.0000 0.12250  0.12250  0.22890  Biso   1.000  C
  C279     1.0000 0.08970  0.08970  0.29620  Biso   1.000  C
  C280     1.0000 0.07159  0.07159  0.33251  Biso   1.000  C
  C281     1.0000 0.04080  0.04080  0.40138  Biso   1.000  C
  C282     1.0000 0.02520  0.02520  0.43988  Biso   1.000  C
  C283     1.0000 0.19040  0.53200  0.13880  Biso   1.000  C
  C284     1.0000 0.22890  0.52610  0.12250  Biso   1.000  C
  C285     1.0000 0.29620  0.52440  0.08970  Biso   1.000  C
  C286     1.0000 0.33251  0.52431  0.07159  Biso   1.000  C
  C287     1.0000 0.40138  0.51702  0.04080  Biso   1.000  C
  C288     1.0000 0.43988  0.50972  0.02520  Biso   1.000  C
  C289     1.0000 0.86120  0.46800  0.86120  Biso   1.000  C
  C290     1.0000 0.87750  0.47390  0.87750  Biso   1.000  C
  C291     1.0000 0.91030  0.47560  0.91030  Biso   1.000  C
  C292     1.0000 0.92841  0.47569  0.92841  Biso   1.000  C
  C293     1.0000 0.95920  0.48298  0.95920  Biso   1.000  C
  C294     1.0000 0.97480  0.49028  0.97480  Biso   1.000  C
  C295     1.0000 0.46800  0.86120  0.80960  Biso   1.000  C
  C296     1.0000 0.47390  0.87750  0.77110  Biso   1.000  C
  C297     1.0000 0.47560  0.91030  0.70380  Biso   1.000  C
  C298     1.0000 0.47569  0.92841  0.66749  Biso   1.000  C
  C299     1.0000 0.48298  0.95920  0.59862  Biso   1.000  C
  C300     1.0000 0.49028  0.97480  0.56012  Biso   1.000  C
  C301     1.0000 0.80960  0.86120  0.46800  Biso   1.000  C
  C302     1.0000 0.77110  0.87750  0.47390  Biso   1.000  C
  C303     1.0000 0.70380  0.91030  0.47560  Biso   1.000  C
  C304     1.0000 0.66749  0.92841  0.47569  Biso   1.000  C
  C305     1.0000 0.59862  0.95920  0.48298  Biso   1.000  C
  C306     1.0000 0.56012  0.97480  0.49028  Biso   1.000  C
  C307     1.0000 0.86120  0.80960  0.86120  Biso   1.000  C
  C308     1.0000 0.87750  0.77110  0.87750  Biso   1.000  C
  C309     1.0000 0.91030  0.70380  0.91030  Biso   1.000  C
  C310     1.0000 0.92841  0.66749  0.92841  Biso   1.000  C
  C311     1.0000 0.95920  0.59862  0.95920  Biso   1.000  C
  C312     1.0000 0.97480  0.56012  0.97480  Biso   1.000  C
  C313     1.0000 0.86120  0.46800  0.80960  Biso   1.000  C
  C314     1.0000 0.87750  0.47390  0.77110  Biso   1.000  C
  C315     1.0000 0.91030  0.47560  0.70380  Biso   1.000  C
  C316     1.0000 0.92841  0.47569  0.66749  Biso   1.000  C
  C317     1.0000 0.95920  0.48298  0.59862  Biso   1.000  C
  C318     1.0000 0.97480  0.49028  0.56012  Biso   1.000  C
  C319     1.0000 0.80960  0.86120  0.86120  Biso   1.000  C
  C320     1.0000 0.77110  0.87750  0.87750  Biso   1.000  C
  C321     1.0000 0.70380  0.91030  0.91030  Biso   1.000  C
  C322     1.0000 0.66749  0.92841  0.92841  Biso   1.000  C
  C323     1.0000 0.59862  0.95920  0.95920  Biso   1.000  C
  C324     1.0000 0.56012  0.97480  0.97480  Biso   1.000  C
  C325     1.0000 0.46800  0.86120  0.86120  Biso   1.000  C
  C326     1.0000 0.47390  0.87750  0.87750  Biso   1.000  C
  C327     1.0000 0.47560  0.91030  0.91030  Biso   1.000  C
  C328     1.0000 0.47569  0.92841  0.92841  Biso   1.000  C
  C329     1.0000 0.48298  0.95920  0.95920  Biso   1.000  C
  C330     1.0000 0.49028  0.97480  0.97480  Biso   1.000  C
  C331     1.0000 0.86120  0.80960  0.46800  Biso   1.000  C
  C332     1.0000 0.87750  0.77110  0.47390  Biso   1.000  C
  C333     1.0000 0.91030  0.70380  0.47560  Biso   1.000  C
  C334     1.0000 0.92841  0.66749  0.47569  Biso   1.000  C
  C335     1.0000 0.95920  0.59862  0.48298  Biso   1.000  C
  C336     1.0000 0.97480  0.56012  0.49028  Biso   1.000  C
  C337     1.0000 0.80960  0.46800  0.86120  Biso   1.000  C
  C338     1.0000 0.77110  0.47390  0.87750  Biso   1.000  C
  C339     1.0000 0.70380  0.47560  0.91030  Biso   1.000  C
  C340     1.0000 0.66749  0.47569  0.92841  Biso   1.000  C
  C341     1.0000 0.59862  0.48298  0.95920  Biso   1.000  C
  C342     1.0000 0.56012  0.49028  0.97480  Biso   1.000  C
  C343     1.0000 0.86120  0.86120  0.46800  Biso   1.000  C
  C344     1.0000 0.87750  0.87750  0.47390  Biso   1.000  C
  C345     1.0000 0.91030  0.91030  0.47560  Biso   1.000  C
  C346     1.0000 0.92841  0.92841  0.47569  Biso   1.000  C
  C347     1.0000 0.95920  0.95920  0.48298  Biso   1.000  C
  C348     1.0000 0.97480  0.97480  0.49028  Biso   1.000  C
  C349     1.0000 0.86120  0.86120  0.80960  Biso   1.000  C
  C350     1.0000 0.87750  0.87750  0.77110  Biso   1.000  C
  C351     1.0000 0.91030  0.91030  0.70380  Biso   1.000  C
  C352     1.0000 0.92841  0.92841  0.66749  Biso   1.000  C
  C353     1.0000 0.95920  0.95920  0.59862  Biso   1.000  C
  C354     1.0000 0.97480  0.97480  0.56012  Biso   1.000  C
  C355     1.0000 0.46800  0.80960  0.86120  Biso   1.000  C
  C356     1.0000 0.47390  0.77110  0.87750  Biso   1.000  C
  C357     1.0000 0.47560  0.70380  0.91030  Biso   1.000  C
  C358     1.0000 0.47569  0.66749  0.92841  Biso   1.000  C
  C359     1.0000 0.48298  0.59862  0.95920  Biso   1.000  C
  C360     1.0000 0.49028  0.56012  0.97480  Biso   1.000  C
  O1       1.0000 0.50861  0.04285  0.99603  Biso   1.000  O
  O2       1.0000 0.04285  0.50861  0.45251  Biso   1.000  O
  O3       1.0000 0.99603  0.45251  0.50861  Biso   1.000  O
  O4       1.0000 0.45251  0.99603  0.04285  Biso   1.000  O
  O5       1.0000 0.50861  0.99603  0.45251  Biso   1.000  O
  O6       1.0000 0.04285  0.45251  0.99603  Biso   1.000  O
  O7       1.0000 0.99603  0.50861  0.04285  Biso   1.000  O
  O8       1.0000 0.45251  0.04285  0.50861  Biso   1.000  O
  O9       1.0000 0.50861  0.45251  0.04285  Biso   1.000  O
  O10      1.0000 0.04285  0.99603  0.50861  Biso   1.000  O
  O11      1.0000 0.99603  0.04285  0.45251  Biso   1.000  O
  O12      1.0000 0.45251  0.50861  0.99603  Biso   1.000  O
  O13      1.0000 0.95715  0.49139  0.00397  Biso   1.000  O
  O14      1.0000 0.49139  0.95715  0.54749  Biso   1.000  O
  O15      1.0000 0.54749  0.00397  0.49139  Biso   1.000  O
  O16      1.0000 0.00397  0.54749  0.95715  Biso   1.000  O
  O17      1.0000 0.00397  0.49139  0.54749  Biso   1.000  O
  O18      1.0000 0.54749  0.95715  0.00397  Biso   1.000  O
  O19      1.0000 0.49139  0.00397  0.95715  Biso   1.000  O
  O20      1.0000 0.95715  0.54749  0.49139  Biso   1.000  O
  O21      1.0000 0.54749  0.49139  0.95715  Biso   1.000  O
  O22      1.0000 0.00397  0.95715  0.49139  Biso   1.000  O
  O23      1.0000 0.95715  0.00397  0.54749  Biso   1.000  O
  O24      1.0000 0.49139  0.54749  0.00397  Biso   1.000  O
  O25      1.0000 0.49139  0.95715  0.00397  Biso   1.000  O
  O26      1.0000 0.95715  0.49139  0.54749  Biso   1.000  O
  O27      1.0000 0.00397  0.54749  0.49139  Biso   1.000  O
  O28      1.0000 0.54749  0.00397  0.95715  Biso   1.000  O
  O29      1.0000 0.49139  0.00397  0.54749  Biso   1.000  O
  O30      1.0000 0.95715  0.54749  0.00397  Biso   1.000  O
  O31      1.0000 0.00397  0.49139  0.95715  Biso   1.000  O
  O32      1.0000 0.54749  0.95715  0.49139  Biso   1.000  O
  O33      1.0000 0.49139  0.54749  0.95715  Biso   1.000  O
  O34      1.0000 0.95715  0.00397  0.49139  Biso   1.000  O
  O35      1.0000 0.00397  0.95715  0.54749  Biso   1.000  O
  O36      1.0000 0.54749  0.49139  0.00397  Biso   1.000  O
  O37      1.0000 0.04285  0.50861  0.99603  Biso   1.000  O
  O38      1.0000 0.50861  0.04285  0.45251  Biso   1.000  O
  O39      1.0000 0.45251  0.99603  0.50861  Biso   1.000  O
  O40      1.0000 0.99603  0.45251  0.04285  Biso   1.000  O
  O41      1.0000 0.99603  0.50861  0.45251  Biso   1.000  O
  O42      1.0000 0.45251  0.04285  0.99603  Biso   1.000  O
  O43      1.0000 0.50861  0.99603  0.04285  Biso   1.000  O
  O44      1.0000 0.04285  0.45251  0.50861  Biso   1.000  O
  O45      1.0000 0.45251  0.50861  0.04285  Biso   1.000  O
  O46      1.0000 0.99603  0.04285  0.50861  Biso   1.000  O
  O47      1.0000 0.04285  0.99603  0.45251  Biso   1.000  O
  O48      1.0000 0.50861  0.45251  0.99603  Biso   1.000  O
  Cu13     1.0000 0.61980  0.39294  0.40803  Biso   1.000  Cu
  Cu14     1.0000 0.61980  0.39294  0.45108  Biso   1.000  Cu
  Cu15     1.0000 0.61980  0.39294  0.82642  Biso   1.000  Cu
  Cu16     1.0000 0.61980  0.39294  0.78337  Biso   1.000  Cu
  Cu17     1.0000 0.41060  0.60214  0.61723  Biso   1.000  Cu
  Cu18     1.0000 0.45366  0.55909  0.61723  Biso   1.000  Cu
  Cu19     1.0000 0.82900  0.18375  0.61723  Biso   1.000  Cu
  Cu20     1.0000 0.78594  0.22680  0.61723  Biso   1.000  Cu
  Cu21     1.0000 0.61980  0.18375  0.82642  Biso   1.000  Cu
  Cu22     1.0000 0.61980  0.22680  0.78337  Biso   1.000  Cu
  Cu23     1.0000 0.61980  0.60214  0.40803  Biso   1.000  Cu
  Cu24     1.0000 0.61980  0.55909  0.45108  Biso   1.000  Cu
  Cu25     1.0000 0.41060  0.39294  0.61723  Biso   1.000  Cu
  Cu26     1.0000 0.45366  0.39294  0.61723  Biso   1.000  Cu
  Cu27     1.0000 0.82900  0.39294  0.61723  Biso   1.000  Cu
  Cu28     1.0000 0.78594  0.39294  0.61723  Biso   1.000  Cu
  Cu29     1.0000 0.61980  0.60214  0.61723  Biso   1.000  Cu
  Cu30     1.0000 0.61980  0.55909  0.61723  Biso   1.000  Cu
  Cu31     1.0000 0.61980  0.18375  0.61723  Biso   1.000  Cu
  Cu32     1.0000 0.61980  0.22680  0.61723  Biso   1.000  Cu
  Cu33     1.0000 0.41060  0.39294  0.82642  Biso   1.000  Cu
  Cu34     1.0000 0.45366  0.39294  0.78337  Biso   1.000  Cu
  Cu35     1.0000 0.82900  0.39294  0.40803  Biso   1.000  Cu
  Cu36     1.0000 0.78594  0.39294  0.45108  Biso   1.000  Cu
  H217     1.0000 0.63568  0.28905  0.43443  Biso   1.000  H
  H218     1.0000 0.64580  0.23665  0.37576  Biso   1.000  H
  H219     1.0000 0.65258  0.20479  0.34673  Biso   1.000  H
  H220     1.0000 0.65672  0.14521  0.29240  Biso   1.000  H
  H221     1.0000 0.66997  0.11658  0.26115  Biso   1.000  H
  H222     1.0000 0.51591  0.40883  0.88803  Biso   1.000  H
  H223     1.0000 0.46351  0.41894  0.98899  Biso   1.000  H
  H224     1.0000 0.43164  0.42572  0.04311  Biso   1.000  H
  H225     1.0000 0.37206  0.42987  0.14127  Biso   1.000  H
  H226     1.0000 0.34343  0.44312  0.18791  Biso   1.000  H
  H227     1.0000 0.43700  0.66375  0.63311  Biso   1.000  H
  H228     1.0000 0.37833  0.76471  0.64323  Biso   1.000  H
  H229     1.0000 0.34930  0.81883  0.65000  Biso   1.000  H
  H230     1.0000 0.29498  0.91699  0.65415  Biso   1.000  H
  H231     1.0000 0.26372  0.96362  0.66740  Biso   1.000  H
  H232     1.0000 0.89060  0.21015  0.51334  Biso   1.000  H
  H233     1.0000 0.99156  0.15148  0.46094  Biso   1.000  H
  H234     1.0000 0.04568  0.12244  0.42907  Biso   1.000  H
  H235     1.0000 0.14384  0.06812  0.36949  Biso   1.000  H
  H236     1.0000 0.19048  0.03686  0.34086  Biso   1.000  H
  H237     1.0000 0.63568  0.21015  0.88803  Biso   1.000  H
  H238     1.0000 0.64580  0.15148  0.98899  Biso   1.000  H
  H239     1.0000 0.65258  0.12244  0.04311  Biso   1.000  H
  H240     1.0000 0.65672  0.06812  0.14127  Biso   1.000  H
  H241     1.0000 0.66997  0.03686  0.18791  Biso   1.000  H
  H242     1.0000 0.51591  0.66375  0.43443  Biso   1.000  H
  H243     1.0000 0.46351  0.76471  0.37576  Biso   1.000  H
  H244     1.0000 0.43164  0.81883  0.34673  Biso   1.000  H
  H245     1.0000 0.37206  0.91699  0.29240  Biso   1.000  H
  H246     1.0000 0.34343  0.96362  0.26115  Biso   1.000  H
  H247     1.0000 0.43700  0.40883  0.51334  Biso   1.000  H
  H248     1.0000 0.37833  0.41894  0.46094  Biso   1.000  H
  H249     1.0000 0.34930  0.42572  0.42907  Biso   1.000  H
  H250     1.0000 0.29498  0.42987  0.36949  Biso   1.000  H
  H251     1.0000 0.26372  0.44312  0.34086  Biso   1.000  H
  H252     1.0000 0.89060  0.28905  0.63311  Biso   1.000  H
  H253     1.0000 0.99156  0.23665  0.64323  Biso   1.000  H
  H254     1.0000 0.04568  0.20479  0.65000  Biso   1.000  H
  H255     1.0000 0.14384  0.14521  0.65415  Biso   1.000  H
  H256     1.0000 0.19048  0.11658  0.66740  Biso   1.000  H
  H257     1.0000 0.63568  0.66375  0.51334  Biso   1.000  H
  H258     1.0000 0.64580  0.76471  0.46094  Biso   1.000  H
  H259     1.0000 0.65258  0.81883  0.42907  Biso   1.000  H
  H260     1.0000 0.65672  0.91699  0.36949  Biso   1.000  H
  H261     1.0000 0.66997  0.96362  0.34086  Biso   1.000  H
  H262     1.0000 0.51591  0.21015  0.63311  Biso   1.000  H
  H263     1.0000 0.46351  0.15148  0.64323  Biso   1.000  H
  H264     1.0000 0.43164  0.12244  0.65000  Biso   1.000  H
  H265     1.0000 0.37206  0.06812  0.65415  Biso   1.000  H
  H266     1.0000 0.34343  0.03686  0.66740  Biso   1.000  H
  H267     1.0000 0.43700  0.28905  0.88803  Biso   1.000  H
  H268     1.0000 0.37833  0.23665  0.98899  Biso   1.000  H
  H269     1.0000 0.34930  0.20479  0.04311  Biso   1.000  H
  H270     1.0000 0.29498  0.14521  0.14127  Biso   1.000  H
  H271     1.0000 0.26372  0.11658  0.18791  Biso   1.000  H
  H272     1.0000 0.89060  0.40883  0.43443  Biso   1.000  H
  H273     1.0000 0.99156  0.41894  0.37576  Biso   1.000  H
  H274     1.0000 0.04568  0.42572  0.34673  Biso   1.000  H
  H275     1.0000 0.14384  0.42987  0.29240  Biso   1.000  H
  H276     1.0000 0.19048  0.44312  0.26115  Biso   1.000  H
  H277     1.0000 0.72369  0.37706  0.80002  Biso   1.000  H
  H278     1.0000 0.77609  0.36695  0.85869  Biso   1.000  H
  H279     1.0000 0.80796  0.36017  0.88773  Biso   1.000  H
  H280     1.0000 0.86754  0.35602  0.94205  Biso   1.000  H
  H281     1.0000 0.89617  0.34277  0.97331  Biso   1.000  H
  H282     1.0000 0.60392  0.49684  0.34642  Biso   1.000  H
  H283     1.0000 0.59380  0.54924  0.24547  Biso   1.000  H
  H284     1.0000 0.58702  0.58110  0.19135  Biso   1.000  H
  H285     1.0000 0.58288  0.64068  0.09318  Biso   1.000  H
  H286     1.0000 0.56962  0.66931  0.04655  Biso   1.000  H
  H287     1.0000 0.34900  0.57574  0.60135  Biso   1.000  H
  H288     1.0000 0.24804  0.63441  0.59123  Biso   1.000  H
  H289     1.0000 0.19392  0.66344  0.58445  Biso   1.000  H
  H290     1.0000 0.09575  0.71777  0.58030  Biso   1.000  H
  H291     1.0000 0.04912  0.74903  0.56705  Biso   1.000  H
  H292     1.0000 0.80259  0.12214  0.72112  Biso   1.000  H
  H293     1.0000 0.86127  0.02118  0.77352  Biso   1.000  H
  H294     1.0000 0.89030  0.96706  0.80538  Biso   1.000  H
  H295     1.0000 0.94462  0.86890  0.86497  Biso   1.000  H
  H296     1.0000 0.97588  0.82226  0.89359  Biso   1.000  H
  H297     1.0000 0.80259  0.37706  0.34642  Biso   1.000  H
  H298     1.0000 0.86127  0.36695  0.24547  Biso   1.000  H
  H299     1.0000 0.89030  0.36017  0.19135  Biso   1.000  H
  H300     1.0000 0.94462  0.35602  0.09318  Biso   1.000  H
  H301     1.0000 0.97588  0.34277  0.04655  Biso   1.000  H
  H302     1.0000 0.34900  0.49684  0.80002  Biso   1.000  H
  H303     1.0000 0.24804  0.54924  0.85869  Biso   1.000  H
  H304     1.0000 0.19392  0.58110  0.88773  Biso   1.000  H
  H305     1.0000 0.09575  0.64068  0.94205  Biso   1.000  H
  H306     1.0000 0.04912  0.66931  0.97331  Biso   1.000  H
  H307     1.0000 0.60392  0.57574  0.72112  Biso   1.000  H
  H308     1.0000 0.59380  0.63441  0.77352  Biso   1.000  H
  H309     1.0000 0.58702  0.66344  0.80538  Biso   1.000  H
  H310     1.0000 0.58288  0.71777  0.86497  Biso   1.000  H
  H311     1.0000 0.56962  0.74903  0.89359  Biso   1.000  H
  H312     1.0000 0.72369  0.12214  0.60135  Biso   1.000  H
  H313     1.0000 0.77609  0.02118  0.59123  Biso   1.000  H
  H314     1.0000 0.80796  0.96706  0.58445  Biso   1.000  H
  H315     1.0000 0.86754  0.86890  0.58030  Biso   1.000  H
  H316     1.0000 0.89617  0.82226  0.56705  Biso   1.000  H
  H317     1.0000 0.34900  0.37706  0.72112  Biso   1.000  H
  H318     1.0000 0.24804  0.36695  0.77352  Biso   1.000  H
  H319     1.0000 0.19392  0.36017  0.80538  Biso   1.000  H
  H320     1.0000 0.09575  0.35602  0.86497  Biso   1.000  H
  H321     1.0000 0.04912  0.34277  0.89359  Biso   1.000  H
  H322     1.0000 0.80259  0.49684  0.60135  Biso   1.000  H
  H323     1.0000 0.86127  0.54924  0.59123  Biso   1.000  H
  H324     1.0000 0.89030  0.58110  0.58445  Biso   1.000  H
  H325     1.0000 0.94462  0.64068  0.58030  Biso   1.000  H
  H326     1.0000 0.97588  0.66931  0.56705  Biso   1.000  H
  H327     1.0000 0.72369  0.57574  0.34642  Biso   1.000  H
  H328     1.0000 0.77609  0.63441  0.24547  Biso   1.000  H
  H329     1.0000 0.80796  0.66344  0.19135  Biso   1.000  H
  H330     1.0000 0.86754  0.71777  0.09318  Biso   1.000  H
  H331     1.0000 0.89617  0.74903  0.04655  Biso   1.000  H
  H332     1.0000 0.60392  0.12214  0.80002  Biso   1.000  H
  H333     1.0000 0.59380  0.02118  0.85869  Biso   1.000  H
  H334     1.0000 0.58702  0.96706  0.88773  Biso   1.000  H
  H335     1.0000 0.58288  0.86890  0.94205  Biso   1.000  H
  H336     1.0000 0.56962  0.82226  0.97331  Biso   1.000  H
  H337     1.0000 0.60392  0.49684  0.80002  Biso   1.000  H
  H338     1.0000 0.59380  0.54924  0.85869  Biso   1.000  H
  H339     1.0000 0.58702  0.58110  0.88773  Biso   1.000  H
  H340     1.0000 0.58288  0.64068  0.94205  Biso   1.000  H
  H341     1.0000 0.56962  0.66931  0.97331  Biso   1.000  H
  H342     1.0000 0.72369  0.37706  0.34642  Biso   1.000  H
  H343     1.0000 0.77609  0.36695  0.24547  Biso   1.000  H
  H344     1.0000 0.80796  0.36017  0.19135  Biso   1.000  H
  H345     1.0000 0.86754  0.35602  0.09318  Biso   1.000  H
  H346     1.0000 0.89617  0.34277  0.04655  Biso   1.000  H
  H347     1.0000 0.80259  0.12214  0.60135  Biso   1.000  H
  H348     1.0000 0.86127  0.02118  0.59123  Biso   1.000  H
  H349     1.0000 0.89030  0.96706  0.58445  Biso   1.000  H
  H350     1.0000 0.94462  0.86890  0.58030  Biso   1.000  H
  H351     1.0000 0.97588  0.82226  0.56705  Biso   1.000  H
  H352     1.0000 0.34900  0.57574  0.72112  Biso   1.000  H
  H353     1.0000 0.24804  0.63441  0.77352  Biso   1.000  H
  H354     1.0000 0.19392  0.66344  0.80538  Biso   1.000  H
  H355     1.0000 0.09575  0.71777  0.86497  Biso   1.000  H
  H356     1.0000 0.04912  0.74903  0.89359  Biso   1.000  H
  H357     1.0000 0.60392  0.57574  0.34642  Biso   1.000  H
  H358     1.0000 0.59380  0.63441  0.24547  Biso   1.000  H
  H359     1.0000 0.58702  0.66344  0.19135  Biso   1.000  H
  H360     1.0000 0.58288  0.71777  0.09318  Biso   1.000  H
  H361     1.0000 0.56962  0.74903  0.04655  Biso   1.000  H
  H362     1.0000 0.72369  0.12214  0.80002  Biso   1.000  H
  H363     1.0000 0.77609  0.02118  0.85869  Biso   1.000  H
  H364     1.0000 0.80796  0.96706  0.88773  Biso   1.000  H
  H365     1.0000 0.86754  0.86890  0.94205  Biso   1.000  H
  H366     1.0000 0.89617  0.82226  0.97331  Biso   1.000  H
  H367     1.0000 0.80259  0.37706  0.72112  Biso   1.000  H
  H368     1.0000 0.86127  0.36695  0.77352  Biso   1.000  H
  H369     1.0000 0.89030  0.36017  0.80538  Biso   1.000  H
  H370     1.0000 0.94462  0.35602  0.86497  Biso   1.000  H
  H371     1.0000 0.97588  0.34277  0.89359  Biso   1.000  H
  H372     1.0000 0.34900  0.49684  0.60135  Biso   1.000  H
  H373     1.0000 0.24804  0.54924  0.59123  Biso   1.000  H
  H374     1.0000 0.19392  0.58110  0.58445  Biso   1.000  H
  H375     1.0000 0.09575  0.64068  0.58030  Biso   1.000  H
  H376     1.0000 0.04912  0.66931  0.56705  Biso   1.000  H
  H377     1.0000 0.60392  0.12214  0.72112  Biso   1.000  H
  H378     1.0000 0.59380  0.02118  0.77352  Biso   1.000  H
  H379     1.0000 0.58702  0.96706  0.80538  Biso   1.000  H
  H380     1.0000 0.58288  0.86890  0.86497  Biso   1.000  H
  H381     1.0000 0.56962  0.82226  0.89359  Biso   1.000  H
  H382     1.0000 0.72369  0.57574  0.60135  Biso   1.000  H
  H383     1.0000 0.77609  0.63441  0.59123  Biso   1.000  H
  H384     1.0000 0.80796  0.66344  0.58445  Biso   1.000  H
  H385     1.0000 0.86754  0.71777  0.58030  Biso   1.000  H
  H386     1.0000 0.89617  0.74903  0.56705  Biso   1.000  H
  H387     1.0000 0.80259  0.49684  0.34642  Biso   1.000  H
  H388     1.0000 0.86127  0.54924  0.24547  Biso   1.000  H
  H389     1.0000 0.89030  0.58110  0.19135  Biso   1.000  H
  H390     1.0000 0.94462  0.64068  0.09318  Biso   1.000  H
  H391     1.0000 0.97588  0.66931  0.04655  Biso   1.000  H
  H392     1.0000 0.34900  0.37706  0.80002  Biso   1.000  H
  H393     1.0000 0.24804  0.36695  0.85869  Biso   1.000  H
  H394     1.0000 0.19392  0.36017  0.88773  Biso   1.000  H
  H395     1.0000 0.09575  0.35602  0.94205  Biso   1.000  H
  H396     1.0000 0.04912  0.34277  0.97331  Biso   1.000  H
  H397     1.0000 0.51591  0.40883  0.43443  Biso   1.000  H
  H398     1.0000 0.46351  0.41894  0.37576  Biso   1.000  H
  H399     1.0000 0.43164  0.42572  0.34673  Biso   1.000  H
  H400     1.0000 0.37206  0.42987  0.29240  Biso   1.000  H
  H401     1.0000 0.34343  0.44312  0.26115  Biso   1.000  H
  H402     1.0000 0.63568  0.28905  0.88803  Biso   1.000  H
  H403     1.0000 0.64580  0.23665  0.98899  Biso   1.000  H
  H404     1.0000 0.65258  0.20479  0.04311  Biso   1.000  H
  H405     1.0000 0.65672  0.14521  0.14127  Biso   1.000  H
  H406     1.0000 0.66997  0.11658  0.18791  Biso   1.000  H
  H407     1.0000 0.89060  0.21015  0.63311  Biso   1.000  H
  H408     1.0000 0.99156  0.15148  0.64323  Biso   1.000  H
  H409     1.0000 0.04568  0.12244  0.65000  Biso   1.000  H
  H410     1.0000 0.14384  0.06812  0.65415  Biso   1.000  H
  H411     1.0000 0.19048  0.03686  0.66740  Biso   1.000  H
  H412     1.0000 0.43700  0.66375  0.51334  Biso   1.000  H
  H413     1.0000 0.37833  0.76471  0.46094  Biso   1.000  H
  H414     1.0000 0.34930  0.81883  0.42907  Biso   1.000  H
  H415     1.0000 0.29498  0.91699  0.36949  Biso   1.000  H
  H416     1.0000 0.26372  0.96362  0.34086  Biso   1.000  H
  H417     1.0000 0.43700  0.40883  0.88803  Biso   1.000  H
  H418     1.0000 0.37833  0.41894  0.98899  Biso   1.000  H
  H419     1.0000 0.34930  0.42572  0.04311  Biso   1.000  H
  H420     1.0000 0.29498  0.42987  0.14127  Biso   1.000  H
  H421     1.0000 0.26372  0.44312  0.18791  Biso   1.000  H
  H422     1.0000 0.89060  0.28905  0.43443  Biso   1.000  H
  H423     1.0000 0.99156  0.23665  0.37576  Biso   1.000  H
  H424     1.0000 0.04568  0.20479  0.34673  Biso   1.000  H
  H425     1.0000 0.14384  0.14521  0.29240  Biso   1.000  H
  H426     1.0000 0.19048  0.11658  0.26115  Biso   1.000  H
  H427     1.0000 0.63568  0.21015  0.51334  Biso   1.000  H
  H428     1.0000 0.64580  0.15148  0.46094  Biso   1.000  H
  H429     1.0000 0.65258  0.12244  0.42907  Biso   1.000  H
  H430     1.0000 0.65672  0.06812  0.36949  Biso   1.000  H
  H431     1.0000 0.66997  0.03686  0.34086  Biso   1.000  H
  H432     1.0000 0.51591  0.66375  0.63311  Biso   1.000  H
  H433     1.0000 0.46351  0.76471  0.64323  Biso   1.000  H
  H434     1.0000 0.43164  0.81883  0.65000  Biso   1.000  H
  H435     1.0000 0.37206  0.91699  0.65415  Biso   1.000  H
  H436     1.0000 0.34343  0.96362  0.66740  Biso   1.000  H
  H437     1.0000 0.89060  0.40883  0.51334  Biso   1.000  H
  H438     1.0000 0.99156  0.41894  0.46094  Biso   1.000  H
  H439     1.0000 0.04568  0.42572  0.42907  Biso   1.000  H
  H440     1.0000 0.14384  0.42987  0.36949  Biso   1.000  H
  H441     1.0000 0.19048  0.44312  0.34086  Biso   1.000  H
  H442     1.0000 0.43700  0.28905  0.63311  Biso   1.000  H
  H443     1.0000 0.37833  0.23665  0.64323  Biso   1.000  H
  H444     1.0000 0.34930  0.20479  0.65000  Biso   1.000  H
  H445     1.0000 0.29498  0.14521  0.65415  Biso   1.000  H
  H446     1.0000 0.26372  0.11658  0.66740  Biso   1.000  H
  H447     1.0000 0.51591  0.21015  0.88803  Biso   1.000  H
  H448     1.0000 0.46351  0.15148  0.98899  Biso   1.000  H
  H449     1.0000 0.43164  0.12244  0.04311  Biso   1.000  H
  H450     1.0000 0.37206  0.06812  0.14127  Biso   1.000  H
  H451     1.0000 0.34343  0.03686  0.18791  Biso   1.000  H
  H452     1.0000 0.63568  0.66375  0.43443  Biso   1.000  H
  H453     1.0000 0.64580  0.76471  0.37576  Biso   1.000  H
  H454     1.0000 0.65258  0.81883  0.34673  Biso   1.000  H
  H455     1.0000 0.65672  0.91699  0.29240  Biso   1.000  H
  H456     1.0000 0.66997  0.96362  0.26115  Biso   1.000  H
  H457     1.0000 0.63174  0.29037  0.51465  Biso   1.000  H
  H458     1.0000 0.51722  0.40488  0.81044  Biso   1.000  H
  H459     1.0000 0.51722  0.58616  0.62916  Biso   1.000  H
  H460     1.0000 0.81301  0.29037  0.51465  Biso   1.000  H
  H461     1.0000 0.63174  0.29037  0.81044  Biso   1.000  H
  H462     1.0000 0.51722  0.58616  0.51465  Biso   1.000  H
  H463     1.0000 0.51722  0.40488  0.51465  Biso   1.000  H
  H464     1.0000 0.81301  0.29037  0.62916  Biso   1.000  H
  H465     1.0000 0.63174  0.58616  0.51465  Biso   1.000  H
  H466     1.0000 0.51722  0.29037  0.62916  Biso   1.000  H
  H467     1.0000 0.51722  0.29037  0.81044  Biso   1.000  H
  H468     1.0000 0.81301  0.40488  0.51465  Biso   1.000  H
  H469     1.0000 0.72238  0.38101  0.71980  Biso   1.000  H
  H470     1.0000 0.60786  0.49552  0.42401  Biso   1.000  H
  H471     1.0000 0.42659  0.49552  0.60529  Biso   1.000  H
  H472     1.0000 0.72238  0.19973  0.71980  Biso   1.000  H
  H473     1.0000 0.72238  0.38101  0.42401  Biso   1.000  H
  H474     1.0000 0.42659  0.49552  0.71980  Biso   1.000  H
  H475     1.0000 0.60786  0.49552  0.71980  Biso   1.000  H
  H476     1.0000 0.72238  0.19973  0.60529  Biso   1.000  H
  H477     1.0000 0.42659  0.38101  0.71980  Biso   1.000  H
  H478     1.0000 0.72238  0.49552  0.60529  Biso   1.000  H
  H479     1.0000 0.72238  0.49552  0.42401  Biso   1.000  H
  H480     1.0000 0.60786  0.19973  0.71980  Biso   1.000  H
  H481     1.0000 0.68596  0.00591  0.31355  Biso   1.000  H
  H482     1.0000 0.23276  0.45910  0.23019  Biso   1.000  H
  H483     1.0000 0.31612  0.00591  0.68339  Biso   1.000  H
  H484     1.0000 0.23276  0.08926  0.23019  Biso   1.000  H
  H485     1.0000 0.68596  0.08926  0.23019  Biso   1.000  H
  H486     1.0000 0.23276  0.00591  0.31355  Biso   1.000  H
  H487     1.0000 0.31612  0.45910  0.23019  Biso   1.000  H
  H488     1.0000 0.23276  0.00591  0.68339  Biso   1.000  H
  H489     1.0000 0.68596  0.00591  0.23019  Biso   1.000  H
  H490     1.0000 0.23276  0.08926  0.68339  Biso   1.000  H
  H491     1.0000 0.31612  0.00591  0.23019  Biso   1.000  H
  H492     1.0000 0.23276  0.45910  0.31355  Biso   1.000  H
  H493     1.0000 0.00684  0.32679  0.92091  Biso   1.000  H
  H494     1.0000 0.55364  0.77998  0.00426  Biso   1.000  H
  H495     1.0000 0.00684  0.69662  0.55107  Biso   1.000  H
  H496     1.0000 0.92348  0.77998  0.00426  Biso   1.000  H
  H497     1.0000 0.92348  0.32679  0.00426  Biso   1.000  H
  H498     1.0000 0.00684  0.77998  0.92091  Biso   1.000  H
  H499     1.0000 0.55364  0.69662  0.00426  Biso   1.000  H
  H500     1.0000 0.00684  0.77998  0.55107  Biso   1.000  H
  H501     1.0000 0.00684  0.32679  0.00426  Biso   1.000  H
  H502     1.0000 0.92348  0.77998  0.55107  Biso   1.000  H
  H503     1.0000 0.00684  0.69662  0.00426  Biso   1.000  H
  H504     1.0000 0.55364  0.77998  0.92091  Biso   1.000  H
  C361     1.0000 0.62658  0.33478  0.45284  Biso   1.000  C
  C362     1.0000 0.63649  0.29755  0.46943  Biso   1.000  C
  C363     1.0000 0.63821  0.27742  0.45578  Biso   1.000  C
  C364     1.0000 0.64944  0.21318  0.38486  Biso   1.000  C
  C365     1.0000 0.65308  0.19417  0.36888  Biso   1.000  C
  C366     1.0000 0.66340  0.12153  0.30252  Biso   1.000  C
  C367     1.0000 0.66846  0.10434  0.28391  Biso   1.000  C
  C368     1.0000 0.56163  0.39972  0.83300  Biso   1.000  C
  C369     1.0000 0.52441  0.40964  0.84372  Biso   1.000  C
  C370     1.0000 0.50428  0.41136  0.87579  Biso   1.000  C
  C371     1.0000 0.44004  0.42258  0.99971  Biso   1.000  C
  C372     1.0000 0.42102  0.42623  0.03107  Biso   1.000  C
  C373     1.0000 0.34839  0.43654  0.14815  Biso   1.000  C
  C374     1.0000 0.33119  0.44160  0.17890  Biso   1.000  C
  C375     1.0000 0.45542  0.60872  0.62401  Biso   1.000  C
  C376     1.0000 0.47201  0.61944  0.63392  Biso   1.000  C
  C377     1.0000 0.45835  0.65151  0.63564  Biso   1.000  C
  C378     1.0000 0.38744  0.77543  0.64687  Biso   1.000  C
  C379     1.0000 0.37145  0.80679  0.65051  Biso   1.000  C
  C380     1.0000 0.30509  0.92387  0.66083  Biso   1.000  C
  C381     1.0000 0.28648  0.95462  0.66588  Biso   1.000  C
  C382     1.0000 0.83557  0.22856  0.55906  Biso   1.000  C
  C383     1.0000 0.84630  0.24515  0.52183  Biso   1.000  C
  C384     1.0000 0.87836  0.23149  0.50170  Biso   1.000  C
  C385     1.0000 0.00228  0.16058  0.43747  Biso   1.000  C
  C386     1.0000 0.03364  0.14460  0.41845  Biso   1.000  C
  C387     1.0000 0.15072  0.07824  0.34582  Biso   1.000  C
  C388     1.0000 0.18148  0.05962  0.32862  Biso   1.000  C
  C389     1.0000 0.62658  0.22856  0.83300  Biso   1.000  C
  C390     1.0000 0.63649  0.24515  0.84372  Biso   1.000  C
  C391     1.0000 0.63821  0.23149  0.87579  Biso   1.000  C
  C392     1.0000 0.64944  0.16058  0.99971  Biso   1.000  C
  C393     1.0000 0.65308  0.14460  0.03107  Biso   1.000  C
  C394     1.0000 0.66340  0.07824  0.14815  Biso   1.000  C
  C395     1.0000 0.66846  0.05962  0.17890  Biso   1.000  C
  C396     1.0000 0.56163  0.60872  0.45284  Biso   1.000  C
  C397     1.0000 0.52441  0.61944  0.46943  Biso   1.000  C
  C398     1.0000 0.50428  0.65151  0.45578  Biso   1.000  C
  C399     1.0000 0.44004  0.77543  0.38486  Biso   1.000  C
  C400     1.0000 0.42102  0.80679  0.36888  Biso   1.000  C
  C401     1.0000 0.34839  0.92387  0.30252  Biso   1.000  C
  C402     1.0000 0.33119  0.95462  0.28391  Biso   1.000  C
  C403     1.0000 0.45542  0.39972  0.55906  Biso   1.000  C
  C404     1.0000 0.47201  0.40964  0.52183  Biso   1.000  C
  C405     1.0000 0.45835  0.41136  0.50170  Biso   1.000  C
  C406     1.0000 0.38744  0.42258  0.43747  Biso   1.000  C
  C407     1.0000 0.37145  0.42623  0.41845  Biso   1.000  C
  C408     1.0000 0.30509  0.43654  0.34582  Biso   1.000  C
  C409     1.0000 0.28648  0.44160  0.32862  Biso   1.000  C
  C410     1.0000 0.83557  0.33478  0.62401  Biso   1.000  C
  C411     1.0000 0.84630  0.29755  0.63392  Biso   1.000  C
  C412     1.0000 0.87836  0.27742  0.63564  Biso   1.000  C
  C413     1.0000 0.00228  0.21318  0.64687  Biso   1.000  C
  C414     1.0000 0.03364  0.19417  0.65051  Biso   1.000  C
  C415     1.0000 0.15072  0.12153  0.66083  Biso   1.000  C
  C416     1.0000 0.18148  0.10434  0.66588  Biso   1.000  C
  C417     1.0000 0.62658  0.60872  0.55906  Biso   1.000  C
  C418     1.0000 0.63649  0.61944  0.52183  Biso   1.000  C
  C419     1.0000 0.63821  0.65151  0.50170  Biso   1.000  C
  C420     1.0000 0.64944  0.77543  0.43747  Biso   1.000  C
  C421     1.0000 0.65308  0.80679  0.41845  Biso   1.000  C
  C422     1.0000 0.66340  0.92387  0.34582  Biso   1.000  C
  C423     1.0000 0.66846  0.95462  0.32862  Biso   1.000  C
  C424     1.0000 0.56163  0.22856  0.62401  Biso   1.000  C
  C425     1.0000 0.52441  0.24515  0.63392  Biso   1.000  C
  C426     1.0000 0.50428  0.23149  0.63564  Biso   1.000  C
  C427     1.0000 0.44004  0.16058  0.64687  Biso   1.000  C
  C428     1.0000 0.42102  0.14460  0.65051  Biso   1.000  C
  C429     1.0000 0.34839  0.07824  0.66083  Biso   1.000  C
  C430     1.0000 0.33119  0.05962  0.66588  Biso   1.000  C
  C431     1.0000 0.45542  0.33478  0.83300  Biso   1.000  C
  C432     1.0000 0.47201  0.29755  0.84372  Biso   1.000  C
  C433     1.0000 0.45835  0.27742  0.87579  Biso   1.000  C
  C434     1.0000 0.38744  0.21318  0.99971  Biso   1.000  C
  C435     1.0000 0.37145  0.19417  0.03107  Biso   1.000  C
  C436     1.0000 0.30509  0.12153  0.14815  Biso   1.000  C
  C437     1.0000 0.28648  0.10434  0.17890  Biso   1.000  C
  C438     1.0000 0.83557  0.39972  0.45284  Biso   1.000  C
  C439     1.0000 0.84630  0.40964  0.46943  Biso   1.000  C
  C440     1.0000 0.87836  0.41136  0.45578  Biso   1.000  C
  C441     1.0000 0.00228  0.42258  0.38486  Biso   1.000  C
  C442     1.0000 0.03364  0.42623  0.36888  Biso   1.000  C
  C443     1.0000 0.15072  0.43654  0.30252  Biso   1.000  C
  C444     1.0000 0.18148  0.44160  0.28391  Biso   1.000  C
  C445     1.0000 0.67797  0.38617  0.78161  Biso   1.000  C
  C446     1.0000 0.71519  0.37625  0.76502  Biso   1.000  C
  C447     1.0000 0.73532  0.37453  0.77868  Biso   1.000  C
  C448     1.0000 0.79956  0.36330  0.84959  Biso   1.000  C
  C449     1.0000 0.81858  0.35966  0.86557  Biso   1.000  C
  C450     1.0000 0.89121  0.34934  0.93193  Biso   1.000  C
  C451     1.0000 0.90841  0.34429  0.95055  Biso   1.000  C
  C452     1.0000 0.61302  0.45111  0.40145  Biso   1.000  C
  C453     1.0000 0.60311  0.48834  0.39073  Biso   1.000  C
  C454     1.0000 0.60139  0.50847  0.35866  Biso   1.000  C
  C455     1.0000 0.59016  0.57270  0.23474  Biso   1.000  C
  C456     1.0000 0.58652  0.59172  0.20338  Biso   1.000  C
  C457     1.0000 0.57620  0.66436  0.08630  Biso   1.000  C
  C458     1.0000 0.57114  0.68155  0.05555  Biso   1.000  C
  C459     1.0000 0.40403  0.55733  0.61045  Biso   1.000  C
  C460     1.0000 0.39330  0.54074  0.60054  Biso   1.000  C
  C461     1.0000 0.36124  0.55439  0.59882  Biso   1.000  C
  C462     1.0000 0.23732  0.62531  0.58759  Biso   1.000  C
  C463     1.0000 0.20596  0.64129  0.58395  Biso   1.000  C
  C464     1.0000 0.08888  0.70765  0.57363  Biso   1.000  C
  C465     1.0000 0.05812  0.72626  0.56857  Biso   1.000  C
  C466     1.0000 0.78418  0.17717  0.67539  Biso   1.000  C
  C467     1.0000 0.76759  0.16645  0.71262  Biso   1.000  C
  C468     1.0000 0.78125  0.13438  0.73275  Biso   1.000  C
  C469     1.0000 0.85216  0.01046  0.79699  Biso   1.000  C
  C470     1.0000 0.86815  0.97910  0.81601  Biso   1.000  C
  C471     1.0000 0.93451  0.86202  0.88864  Biso   1.000  C
  C472     1.0000 0.95312  0.83127  0.90584  Biso   1.000  C
  C473     1.0000 0.78418  0.38617  0.40145  Biso   1.000  C
  C474     1.0000 0.76759  0.37625  0.39073  Biso   1.000  C
  C475     1.0000 0.78125  0.37453  0.35866  Biso   1.000  C
  C476     1.0000 0.85216  0.36330  0.23474  Biso   1.000  C
  C477     1.0000 0.86815  0.35966  0.20338  Biso   1.000  C
  C478     1.0000 0.93451  0.34934  0.08630  Biso   1.000  C
  C479     1.0000 0.95312  0.34429  0.05555  Biso   1.000  C
  C480     1.0000 0.40403  0.45111  0.78161  Biso   1.000  C
  C481     1.0000 0.39330  0.48834  0.76502  Biso   1.000  C
  C482     1.0000 0.36124  0.50847  0.77868  Biso   1.000  C
  C483     1.0000 0.23732  0.57270  0.84959  Biso   1.000  C
  C484     1.0000 0.20596  0.59172  0.86557  Biso   1.000  C
  C485     1.0000 0.08888  0.66436  0.93193  Biso   1.000  C
  C486     1.0000 0.05812  0.68155  0.95055  Biso   1.000  C
  C487     1.0000 0.61302  0.55733  0.67539  Biso   1.000  C
  C488     1.0000 0.60311  0.54074  0.71262  Biso   1.000  C
  C489     1.0000 0.60139  0.55439  0.73275  Biso   1.000  C
  C490     1.0000 0.59016  0.62531  0.79699  Biso   1.000  C
  C491     1.0000 0.58652  0.64129  0.81601  Biso   1.000  C
  C492     1.0000 0.57620  0.70765  0.88864  Biso   1.000  C
  C493     1.0000 0.57114  0.72626  0.90584  Biso   1.000  C
  C494     1.0000 0.67797  0.17717  0.61045  Biso   1.000  C
  C495     1.0000 0.71519  0.16645  0.60054  Biso   1.000  C
  C496     1.0000 0.73532  0.13438  0.59882  Biso   1.000  C
  C497     1.0000 0.79956  0.01046  0.58759  Biso   1.000  C
  C498     1.0000 0.81858  0.97910  0.58395  Biso   1.000  C
  C499     1.0000 0.89121  0.86202  0.57363  Biso   1.000  C
  C500     1.0000 0.90841  0.83127  0.56857  Biso   1.000  C
  C501     1.0000 0.40403  0.38617  0.67539  Biso   1.000  C
  C502     1.0000 0.39330  0.37625  0.71262  Biso   1.000  C
  C503     1.0000 0.36124  0.37453  0.73275  Biso   1.000  C
  C504     1.0000 0.23732  0.36330  0.79699  Biso   1.000  C
  C505     1.0000 0.20596  0.35966  0.81601  Biso   1.000  C
  C506     1.0000 0.08888  0.34934  0.88864  Biso   1.000  C
  C507     1.0000 0.05812  0.34429  0.90584  Biso   1.000  C
  C508     1.0000 0.78418  0.45111  0.61045  Biso   1.000  C
  C509     1.0000 0.76759  0.48834  0.60054  Biso   1.000  C
  C510     1.0000 0.78125  0.50847  0.59882  Biso   1.000  C
  C511     1.0000 0.85216  0.57270  0.58759  Biso   1.000  C
  C512     1.0000 0.86815  0.59172  0.58395  Biso   1.000  C
  C513     1.0000 0.93451  0.66436  0.57363  Biso   1.000  C
  C514     1.0000 0.95312  0.68155  0.56857  Biso   1.000  C
  C515     1.0000 0.67797  0.55733  0.40145  Biso   1.000  C
  C516     1.0000 0.71519  0.54074  0.39073  Biso   1.000  C
  C517     1.0000 0.73532  0.55439  0.35866  Biso   1.000  C
  C518     1.0000 0.79956  0.62531  0.23474  Biso   1.000  C
  C519     1.0000 0.81858  0.64129  0.20338  Biso   1.000  C
  C520     1.0000 0.89121  0.70765  0.08630  Biso   1.000  C
  C521     1.0000 0.90841  0.72626  0.05555  Biso   1.000  C
  C522     1.0000 0.61302  0.17717  0.78161  Biso   1.000  C
  C523     1.0000 0.60311  0.16645  0.76502  Biso   1.000  C
  C524     1.0000 0.60139  0.13438  0.77868  Biso   1.000  C
  C525     1.0000 0.59016  0.01046  0.84959  Biso   1.000  C
  C526     1.0000 0.58652  0.97910  0.86557  Biso   1.000  C
  C527     1.0000 0.57620  0.86202  0.93193  Biso   1.000  C
  C528     1.0000 0.57114  0.83127  0.95055  Biso   1.000  C
  C529     1.0000 0.61302  0.45111  0.78161  Biso   1.000  C
  C530     1.0000 0.60311  0.48834  0.76502  Biso   1.000  C
  C531     1.0000 0.60139  0.50847  0.77868  Biso   1.000  C
  C532     1.0000 0.59016  0.57270  0.84959  Biso   1.000  C
  C533     1.0000 0.58652  0.59172  0.86557  Biso   1.000  C
  C534     1.0000 0.57620  0.66436  0.93193  Biso   1.000  C
  C535     1.0000 0.57114  0.68155  0.95055  Biso   1.000  C
  C536     1.0000 0.67797  0.38617  0.40145  Biso   1.000  C
  C537     1.0000 0.71519  0.37625  0.39073  Biso   1.000  C
  C538     1.0000 0.73532  0.37453  0.35866  Biso   1.000  C
  C539     1.0000 0.79956  0.36330  0.23474  Biso   1.000  C
  C540     1.0000 0.81858  0.35966  0.20338  Biso   1.000  C
  C541     1.0000 0.89121  0.34934  0.08630  Biso   1.000  C
  C542     1.0000 0.90841  0.34429  0.05555  Biso   1.000  C
  C543     1.0000 0.78418  0.17717  0.61045  Biso   1.000  C
  C544     1.0000 0.76759  0.16645  0.60054  Biso   1.000  C
  C545     1.0000 0.78125  0.13438  0.59882  Biso   1.000  C
  C546     1.0000 0.85216  0.01046  0.58759  Biso   1.000  C
  C547     1.0000 0.86815  0.97910  0.58395  Biso   1.000  C
  C548     1.0000 0.93451  0.86202  0.57363  Biso   1.000  C
  C549     1.0000 0.95312  0.83127  0.56857  Biso   1.000  C
  C550     1.0000 0.40403  0.55733  0.67539  Biso   1.000  C
  C551     1.0000 0.39330  0.54074  0.71262  Biso   1.000  C
  C552     1.0000 0.36124  0.55439  0.73275  Biso   1.000  C
  C553     1.0000 0.23732  0.62531  0.79699  Biso   1.000  C
  C554     1.0000 0.20596  0.64129  0.81601  Biso   1.000  C
  C555     1.0000 0.08888  0.70765  0.88864  Biso   1.000  C
  C556     1.0000 0.05812  0.72626  0.90584  Biso   1.000  C
  C557     1.0000 0.61302  0.55733  0.40145  Biso   1.000  C
  C558     1.0000 0.60311  0.54074  0.39073  Biso   1.000  C
  C559     1.0000 0.60139  0.55439  0.35866  Biso   1.000  C
  C560     1.0000 0.59016  0.62531  0.23474  Biso   1.000  C
  C561     1.0000 0.58652  0.64129  0.20338  Biso   1.000  C
  C562     1.0000 0.57620  0.70765  0.08630  Biso   1.000  C
  C563     1.0000 0.57114  0.72626  0.05555  Biso   1.000  C
  C564     1.0000 0.67797  0.17717  0.78161  Biso   1.000  C
  C565     1.0000 0.71519  0.16645  0.76502  Biso   1.000  C
  C566     1.0000 0.73532  0.13438  0.77868  Biso   1.000  C
  C567     1.0000 0.79956  0.01046  0.84959  Biso   1.000  C
  C568     1.0000 0.81858  0.97910  0.86557  Biso   1.000  C
  C569     1.0000 0.89121  0.86202  0.93193  Biso   1.000  C
  C570     1.0000 0.90841  0.83127  0.95055  Biso   1.000  C
  C571     1.0000 0.78418  0.38617  0.67539  Biso   1.000  C
  C572     1.0000 0.76759  0.37625  0.71262  Biso   1.000  C
  C573     1.0000 0.78125  0.37453  0.73275  Biso   1.000  C
  C574     1.0000 0.85216  0.36330  0.79699  Biso   1.000  C
  C575     1.0000 0.86815  0.35966  0.81601  Biso   1.000  C
  C576     1.0000 0.93451  0.34934  0.88864  Biso   1.000  C
  C577     1.0000 0.95312  0.34429  0.90584  Biso   1.000  C
  C578     1.0000 0.40403  0.45111  0.61045  Biso   1.000  C
  C579     1.0000 0.39330  0.48834  0.60054  Biso   1.000  C
  C580     1.0000 0.36124  0.50847  0.59882  Biso   1.000  C
  C581     1.0000 0.23732  0.57270  0.58759  Biso   1.000  C
  C582     1.0000 0.20596  0.59172  0.58395  Biso   1.000  C
  C583     1.0000 0.08888  0.66436  0.57363  Biso   1.000  C
  C584     1.0000 0.05812  0.68155  0.56857  Biso   1.000  C
  C585     1.0000 0.61302  0.17717  0.67539  Biso   1.000  C
  C586     1.0000 0.60311  0.16645  0.71262  Biso   1.000  C
  C587     1.0000 0.60139  0.13438  0.73275  Biso   1.000  C
  C588     1.0000 0.59016  0.01046  0.79699  Biso   1.000  C
  C589     1.0000 0.58652  0.97910  0.81601  Biso   1.000  C
  C590     1.0000 0.57620  0.86202  0.88864  Biso   1.000  C
  C591     1.0000 0.57114  0.83127  0.90584  Biso   1.000  C
  C592     1.0000 0.67797  0.55733  0.61045  Biso   1.000  C
  C593     1.0000 0.71519  0.54074  0.60054  Biso   1.000  C
  C594     1.0000 0.73532  0.55439  0.59882  Biso   1.000  C
  C595     1.0000 0.79956  0.62531  0.58759  Biso   1.000  C
  C596     1.0000 0.81858  0.64129  0.58395  Biso   1.000  C
  C597     1.0000 0.89121  0.70765  0.57363  Biso   1.000  C
  C598     1.0000 0.90841  0.72626  0.56857  Biso   1.000  C
  C599     1.0000 0.78418  0.45111  0.40145  Biso   1.000  C
  C600     1.0000 0.76759  0.48834  0.39073  Biso   1.000  C
  C601     1.0000 0.78125  0.50847  0.35866  Biso   1.000  C
  C602     1.0000 0.85216  0.57270  0.23474  Biso   1.000  C
  C603     1.0000 0.86815  0.59172  0.20338  Biso   1.000  C
  C604     1.0000 0.93451  0.66436  0.08630  Biso   1.000  C
  C605     1.0000 0.95312  0.68155  0.05555  Biso   1.000  C
  C606     1.0000 0.40403  0.38617  0.78161  Biso   1.000  C
  C607     1.0000 0.39330  0.37625  0.76502  Biso   1.000  C
  C608     1.0000 0.36124  0.37453  0.77868  Biso   1.000  C
  C609     1.0000 0.23732  0.36330  0.84959  Biso   1.000  C
  C610     1.0000 0.20596  0.35966  0.86557  Biso   1.000  C
  C611     1.0000 0.08888  0.34934  0.93193  Biso   1.000  C
  C612     1.0000 0.05812  0.34429  0.95055  Biso   1.000  C
  C613     1.0000 0.56163  0.39972  0.45284  Biso   1.000  C
  C614     1.0000 0.52441  0.40964  0.46943  Biso   1.000  C
  C615     1.0000 0.50428  0.41136  0.45578  Biso   1.000  C
  C616     1.0000 0.44004  0.42258  0.38486  Biso   1.000  C
  C617     1.0000 0.42102  0.42623  0.36888  Biso   1.000  C
  C618     1.0000 0.34839  0.43654  0.30252  Biso   1.000  C
  C619     1.0000 0.33119  0.44160  0.28391  Biso   1.000  C
  C620     1.0000 0.62658  0.33478  0.83300  Biso   1.000  C
  C621     1.0000 0.63649  0.29755  0.84372  Biso   1.000  C
  C622     1.0000 0.63821  0.27742  0.87579  Biso   1.000  C
  C623     1.0000 0.64944  0.21318  0.99971  Biso   1.000  C
  C624     1.0000 0.65308  0.19417  0.03107  Biso   1.000  C
  C625     1.0000 0.66340  0.12153  0.14815  Biso   1.000  C
  C626     1.0000 0.66846  0.10434  0.17890  Biso   1.000  C
  C627     1.0000 0.83557  0.22856  0.62401  Biso   1.000  C
  C628     1.0000 0.84630  0.24515  0.63392  Biso   1.000  C
  C629     1.0000 0.87836  0.23149  0.63564  Biso   1.000  C
  C630     1.0000 0.00228  0.16058  0.64687  Biso   1.000  C
  C631     1.0000 0.03364  0.14460  0.65051  Biso   1.000  C
  C632     1.0000 0.15072  0.07824  0.66083  Biso   1.000  C
  C633     1.0000 0.18148  0.05962  0.66588  Biso   1.000  C
  C634     1.0000 0.45542  0.60872  0.55906  Biso   1.000  C
  C635     1.0000 0.47201  0.61944  0.52183  Biso   1.000  C
  C636     1.0000 0.45835  0.65151  0.50170  Biso   1.000  C
  C637     1.0000 0.38744  0.77543  0.43747  Biso   1.000  C
  C638     1.0000 0.37145  0.80679  0.41845  Biso   1.000  C
  C639     1.0000 0.30509  0.92387  0.34582  Biso   1.000  C
  C640     1.0000 0.28648  0.95462  0.32862  Biso   1.000  C
  C641     1.0000 0.45542  0.39972  0.83300  Biso   1.000  C
  C642     1.0000 0.47201  0.40964  0.84372  Biso   1.000  C
  C643     1.0000 0.45835  0.41136  0.87579  Biso   1.000  C
  C644     1.0000 0.38744  0.42258  0.99971  Biso   1.000  C
  C645     1.0000 0.37145  0.42623  0.03107  Biso   1.000  C
  C646     1.0000 0.30509  0.43654  0.14815  Biso   1.000  C
  C647     1.0000 0.28648  0.44160  0.17890  Biso   1.000  C
  C648     1.0000 0.83557  0.33478  0.45284  Biso   1.000  C
  C649     1.0000 0.84630  0.29755  0.46943  Biso   1.000  C
  C650     1.0000 0.87836  0.27742  0.45578  Biso   1.000  C
  C651     1.0000 0.00228  0.21318  0.38486  Biso   1.000  C
  C652     1.0000 0.03364  0.19417  0.36888  Biso   1.000  C
  C653     1.0000 0.15072  0.12153  0.30252  Biso   1.000  C
  C654     1.0000 0.18148  0.10434  0.28391  Biso   1.000  C
  C655     1.0000 0.62658  0.22856  0.55906  Biso   1.000  C
  C656     1.0000 0.63649  0.24515  0.52183  Biso   1.000  C
  C657     1.0000 0.63821  0.23149  0.50170  Biso   1.000  C
  C658     1.0000 0.64944  0.16058  0.43747  Biso   1.000  C
  C659     1.0000 0.65308  0.14460  0.41845  Biso   1.000  C
  C660     1.0000 0.66340  0.07824  0.34582  Biso   1.000  C
  C661     1.0000 0.66846  0.05962  0.32862  Biso   1.000  C
  C662     1.0000 0.56163  0.60872  0.62401  Biso   1.000  C
  C663     1.0000 0.52441  0.61944  0.63392  Biso   1.000  C
  C664     1.0000 0.50428  0.65151  0.63564  Biso   1.000  C
  C665     1.0000 0.44004  0.77543  0.64687  Biso   1.000  C
  C666     1.0000 0.42102  0.80679  0.65051  Biso   1.000  C
  C667     1.0000 0.34839  0.92387  0.66083  Biso   1.000  C
  C668     1.0000 0.33119  0.95462  0.66588  Biso   1.000  C
  C669     1.0000 0.83557  0.39972  0.55906  Biso   1.000  C
  C670     1.0000 0.84630  0.40964  0.52183  Biso   1.000  C
  C671     1.0000 0.87836  0.41136  0.50170  Biso   1.000  C
  C672     1.0000 0.00228  0.42258  0.43747  Biso   1.000  C
  C673     1.0000 0.03364  0.42623  0.41845  Biso   1.000  C
  C674     1.0000 0.15072  0.43654  0.34582  Biso   1.000  C
  C675     1.0000 0.18148  0.44160  0.32862  Biso   1.000  C
  C676     1.0000 0.45542  0.33478  0.62401  Biso   1.000  C
  C677     1.0000 0.47201  0.29755  0.63392  Biso   1.000  C
  C678     1.0000 0.45835  0.27742  0.63564  Biso   1.000  C
  C679     1.0000 0.38744  0.21318  0.64687  Biso   1.000  C
  C680     1.0000 0.37145  0.19417  0.65051  Biso   1.000  C
  C681     1.0000 0.30509  0.12153  0.66083  Biso   1.000  C
  C682     1.0000 0.28648  0.10434  0.66588  Biso   1.000  C
  C683     1.0000 0.56163  0.22856  0.83300  Biso   1.000  C
  C684     1.0000 0.52441  0.24515  0.84372  Biso   1.000  C
  C685     1.0000 0.50428  0.23149  0.87579  Biso   1.000  C
  C686     1.0000 0.44004  0.16058  0.99971  Biso   1.000  C
  C687     1.0000 0.42102  0.14460  0.03107  Biso   1.000  C
  C688     1.0000 0.34839  0.07824  0.14815  Biso   1.000  C
  C689     1.0000 0.33119  0.05962  0.17890  Biso   1.000  C
  C690     1.0000 0.62658  0.60872  0.45284  Biso   1.000  C
  C691     1.0000 0.63649  0.61944  0.46943  Biso   1.000  C
  C692     1.0000 0.63821  0.65151  0.45578  Biso   1.000  C
  C693     1.0000 0.64944  0.77543  0.38486  Biso   1.000  C
  C694     1.0000 0.65308  0.80679  0.36888  Biso   1.000  C
  C695     1.0000 0.66340  0.92387  0.30252  Biso   1.000  C
  C696     1.0000 0.66846  0.95462  0.28391  Biso   1.000  C
  C697     1.0000 0.63477  0.27823  0.50251  Biso   1.000  C
  C698     1.0000 0.64307  0.24323  0.46751  Biso   1.000  C
  C699     1.0000 0.64812  0.22462  0.44890  Biso   1.000  C
  C700     1.0000 0.65349  0.20873  0.43302  Biso   1.000  C
  C701     1.0000 0.65207  0.19214  0.41643  Biso   1.000  C
  C702     1.0000 0.65723  0.16028  0.38456  Biso   1.000  C
  C703     1.0000 0.66188  0.14187  0.36615  Biso   1.000  C
  C704     1.0000 0.65885  0.12851  0.35280  Biso   1.000  C
  C705     1.0000 0.66654  0.10929  0.33358  Biso   1.000  C
  C706     1.0000 0.67149  0.07095  0.29524  Biso   1.000  C
  C707     1.0000 0.67645  0.05244  0.27672  Biso   1.000  C
  C708     1.0000 0.50509  0.40792  0.83169  Biso   1.000  C
  C709     1.0000 0.47008  0.41621  0.89339  Biso   1.000  C
  C710     1.0000 0.45147  0.42127  0.92556  Biso   1.000  C
  C711     1.0000 0.43559  0.42663  0.95196  Biso   1.000  C
  C712     1.0000 0.41900  0.42521  0.98656  Biso   1.000  C
  C713     1.0000 0.38713  0.43037  0.04513  Biso   1.000  C
  C714     1.0000 0.36872  0.43503  0.07730  Biso   1.000  C
  C715     1.0000 0.35537  0.43199  0.10704  Biso   1.000  C
  C716     1.0000 0.33615  0.43968  0.12620  Biso   1.000  C
  C717     1.0000 0.29781  0.44464  0.19792  Biso   1.000  C
  C718     1.0000 0.27930  0.44959  0.22999  Biso   1.000  C
  C719     1.0000 0.50509  0.60740  0.63220  Biso   1.000  C
  C720     1.0000 0.47008  0.66911  0.64049  Biso   1.000  C
  C721     1.0000 0.45147  0.70128  0.64555  Biso   1.000  C
  C722     1.0000 0.43559  0.72768  0.65091  Biso   1.000  C
  C723     1.0000 0.41900  0.76228  0.64950  Biso   1.000  C
  C724     1.0000 0.38713  0.82085  0.65466  Biso   1.000  C
  C725     1.0000 0.36872  0.85302  0.65931  Biso   1.000  C
  C726     1.0000 0.35537  0.88276  0.65627  Biso   1.000  C
  C727     1.0000 0.33615  0.90192  0.66396  Biso   1.000  C
  C728     1.0000 0.29781  0.97364  0.66892  Biso   1.000  C
  C729     1.0000 0.27930  0.00571  0.67388  Biso   1.000  C
  C730     1.0000 0.83426  0.27823  0.50251  Biso   1.000  C
  C731     1.0000 0.89596  0.24323  0.46751  Biso   1.000  C
  C732     1.0000 0.92813  0.22462  0.44890  Biso   1.000  C
  C733     1.0000 0.95454  0.20873  0.43302  Biso   1.000  C
  C734     1.0000 0.98913  0.19214  0.41643  Biso   1.000  C
  C735     1.0000 0.04770  0.16028  0.38456  Biso   1.000  C
  C736     1.0000 0.07987  0.14187  0.36615  Biso   1.000  C
  C737     1.0000 0.10961  0.12851  0.35280  Biso   1.000  C
  C738     1.0000 0.12877  0.10929  0.33358  Biso   1.000  C
  C739     1.0000 0.20049  0.07095  0.29524  Biso   1.000  C
  C740     1.0000 0.23256  0.05244  0.27672  Biso   1.000  C
  C741     1.0000 0.63477  0.27823  0.83169  Biso   1.000  C
  C742     1.0000 0.64307  0.24323  0.89339  Biso   1.000  C
  C743     1.0000 0.64812  0.22462  0.92556  Biso   1.000  C
  C744     1.0000 0.65349  0.20873  0.95196  Biso   1.000  C
  C745     1.0000 0.65207  0.19214  0.98656  Biso   1.000  C
  C746     1.0000 0.65723  0.16028  0.04513  Biso   1.000  C
  C747     1.0000 0.66188  0.14187  0.07730  Biso   1.000  C
  C748     1.0000 0.65885  0.12851  0.10704  Biso   1.000  C
  C749     1.0000 0.66654  0.10929  0.12620  Biso   1.000  C
  C750     1.0000 0.67149  0.07095  0.19792  Biso   1.000  C
  C751     1.0000 0.67645  0.05244  0.22999  Biso   1.000  C
  C752     1.0000 0.50509  0.60740  0.50251  Biso   1.000  C
  C753     1.0000 0.47008  0.66911  0.46751  Biso   1.000  C
  C754     1.0000 0.45147  0.70128  0.44890  Biso   1.000  C
  C755     1.0000 0.43559  0.72768  0.43302  Biso   1.000  C
  C756     1.0000 0.41900  0.76228  0.41643  Biso   1.000  C
  C757     1.0000 0.38713  0.82085  0.38456  Biso   1.000  C
  C758     1.0000 0.36872  0.85302  0.36615  Biso   1.000  C
  C759     1.0000 0.35537  0.88276  0.35280  Biso   1.000  C
  C760     1.0000 0.33615  0.90192  0.33358  Biso   1.000  C
  C761     1.0000 0.29781  0.97364  0.29524  Biso   1.000  C
  C762     1.0000 0.27930  0.00571  0.27672  Biso   1.000  C
  C763     1.0000 0.50509  0.40792  0.50251  Biso   1.000  C
  C764     1.0000 0.47008  0.41621  0.46751  Biso   1.000  C
  C765     1.0000 0.45147  0.42127  0.44890  Biso   1.000  C
  C766     1.0000 0.43559  0.42663  0.43302  Biso   1.000  C
  C767     1.0000 0.41900  0.42521  0.41643  Biso   1.000  C
  C768     1.0000 0.38713  0.43037  0.38456  Biso   1.000  C
  C769     1.0000 0.36872  0.43503  0.36615  Biso   1.000  C
  C770     1.0000 0.35537  0.43199  0.35280  Biso   1.000  C
  C771     1.0000 0.33615  0.43968  0.33358  Biso   1.000  C
  C772     1.0000 0.29781  0.44464  0.29524  Biso   1.000  C
  C773     1.0000 0.27930  0.44959  0.27672  Biso   1.000  C
  C774     1.0000 0.83426  0.27823  0.63220  Biso   1.000  C
  C775     1.0000 0.89596  0.24323  0.64049  Biso   1.000  C
  C776     1.0000 0.92813  0.22462  0.64555  Biso   1.000  C
  C777     1.0000 0.95454  0.20873  0.65091  Biso   1.000  C
  C778     1.0000 0.98913  0.19214  0.64950  Biso   1.000  C
  C779     1.0000 0.04770  0.16028  0.65466  Biso   1.000  C
  C780     1.0000 0.07987  0.14187  0.65931  Biso   1.000  C
  C781     1.0000 0.10961  0.12851  0.65627  Biso   1.000  C
  C782     1.0000 0.12877  0.10929  0.66396  Biso   1.000  C
  C783     1.0000 0.20049  0.07095  0.66892  Biso   1.000  C
  C784     1.0000 0.23256  0.05244  0.67388  Biso   1.000  C
  C785     1.0000 0.63477  0.60740  0.50251  Biso   1.000  C
  C786     1.0000 0.64307  0.66911  0.46751  Biso   1.000  C
  C787     1.0000 0.64812  0.70128  0.44890  Biso   1.000  C
  C788     1.0000 0.65349  0.72768  0.43302  Biso   1.000  C
  C789     1.0000 0.65207  0.76228  0.41643  Biso   1.000  C
  C790     1.0000 0.65723  0.82085  0.38456  Biso   1.000  C
  C791     1.0000 0.66188  0.85302  0.36615  Biso   1.000  C
  C792     1.0000 0.65885  0.88276  0.35280  Biso   1.000  C
  C793     1.0000 0.66654  0.90192  0.33358  Biso   1.000  C
  C794     1.0000 0.67149  0.97364  0.29524  Biso   1.000  C
  C795     1.0000 0.67645  0.00571  0.27672  Biso   1.000  C
  C796     1.0000 0.50509  0.27823  0.63220  Biso   1.000  C
  C797     1.0000 0.47008  0.24323  0.64049  Biso   1.000  C
  C798     1.0000 0.45147  0.22462  0.64555  Biso   1.000  C
  C799     1.0000 0.43559  0.20873  0.65091  Biso   1.000  C
  C800     1.0000 0.41900  0.19214  0.64950  Biso   1.000  C
  C801     1.0000 0.38713  0.16028  0.65466  Biso   1.000  C
  C802     1.0000 0.36872  0.14187  0.65931  Biso   1.000  C
  C803     1.0000 0.35537  0.12851  0.65627  Biso   1.000  C
  C804     1.0000 0.33615  0.10929  0.66396  Biso   1.000  C
  C805     1.0000 0.29781  0.07095  0.66892  Biso   1.000  C
  C806     1.0000 0.27930  0.05244  0.67388  Biso   1.000  C
  C807     1.0000 0.50509  0.27823  0.83169  Biso   1.000  C
  C808     1.0000 0.47008  0.24323  0.89339  Biso   1.000  C
  C809     1.0000 0.45147  0.22462  0.92556  Biso   1.000  C
  C810     1.0000 0.43559  0.20873  0.95196  Biso   1.000  C
  C811     1.0000 0.41900  0.19214  0.98656  Biso   1.000  C
  C812     1.0000 0.38713  0.16028  0.04513  Biso   1.000  C
  C813     1.0000 0.36872  0.14187  0.07730  Biso   1.000  C
  C814     1.0000 0.35537  0.12851  0.10704  Biso   1.000  C
  C815     1.0000 0.33615  0.10929  0.12620  Biso   1.000  C
  C816     1.0000 0.29781  0.07095  0.19792  Biso   1.000  C
  C817     1.0000 0.27930  0.05244  0.22999  Biso   1.000  C
  C818     1.0000 0.83426  0.40792  0.50251  Biso   1.000  C
  C819     1.0000 0.89596  0.41621  0.46751  Biso   1.000  C
  C820     1.0000 0.92813  0.42127  0.44890  Biso   1.000  C
  C821     1.0000 0.95454  0.42663  0.43302  Biso   1.000  C
  C822     1.0000 0.98913  0.42521  0.41643  Biso   1.000  C
  C823     1.0000 0.04770  0.43037  0.38456  Biso   1.000  C
  C824     1.0000 0.07987  0.43503  0.36615  Biso   1.000  C
  C825     1.0000 0.10961  0.43199  0.35280  Biso   1.000  C
  C826     1.0000 0.12877  0.43968  0.33358  Biso   1.000  C
  C827     1.0000 0.20049  0.44464  0.29524  Biso   1.000  C
  C828     1.0000 0.23256  0.44959  0.27672  Biso   1.000  C
  C829     1.0000 0.73451  0.37797  0.73194  Biso   1.000  C
  C830     1.0000 0.76952  0.36968  0.76694  Biso   1.000  C
  C831     1.0000 0.78813  0.36462  0.78556  Biso   1.000  C
  C832     1.0000 0.80401  0.35926  0.80144  Biso   1.000  C
  C833     1.0000 0.82060  0.36067  0.81803  Biso   1.000  C
  C834     1.0000 0.85247  0.35552  0.84989  Biso   1.000  C
  C835     1.0000 0.87088  0.35086  0.86830  Biso   1.000  C
  C836     1.0000 0.88423  0.35390  0.88166  Biso   1.000  C
  C837     1.0000 0.90345  0.34621  0.90088  Biso   1.000  C
  C838     1.0000 0.94179  0.34125  0.93922  Biso   1.000  C
  C839     1.0000 0.96030  0.33630  0.95773  Biso   1.000  C
  C840     1.0000 0.60483  0.50766  0.40277  Biso   1.000  C
  C841     1.0000 0.59653  0.54266  0.34106  Biso   1.000  C
  C842     1.0000 0.59148  0.56127  0.30889  Biso   1.000  C
  C843     1.0000 0.58611  0.57716  0.28249  Biso   1.000  C
  C844     1.0000 0.58753  0.59375  0.24789  Biso   1.000  C
  C845     1.0000 0.58237  0.62561  0.18932  Biso   1.000  C
  C846     1.0000 0.57772  0.64402  0.15715  Biso   1.000  C
  C847     1.0000 0.58075  0.65738  0.12741  Biso   1.000  C
  C848     1.0000 0.57306  0.67660  0.10825  Biso   1.000  C
  C849     1.0000 0.56811  0.71493  0.03653  Biso   1.000  C
  C850     1.0000 0.56315  0.73345  0.00447  Biso   1.000  C
  C851     1.0000 0.40534  0.50766  0.60226  Biso   1.000  C
  C852     1.0000 0.34363  0.54266  0.59396  Biso   1.000  C
  C853     1.0000 0.31147  0.56127  0.58890  Biso   1.000  C
  C854     1.0000 0.28506  0.57716  0.58354  Biso   1.000  C
  C855     1.0000 0.25047  0.59375  0.58496  Biso   1.000  C
  C856     1.0000 0.19190  0.62561  0.57980  Biso   1.000  C
  C857     1.0000 0.15973  0.64402  0.57515  Biso   1.000  C
  C858     1.0000 0.12999  0.65738  0.57818  Biso   1.000  C
  C859     1.0000 0.11083  0.67660  0.57049  Biso   1.000  C
  C860     1.0000 0.03911  0.71493  0.56553  Biso   1.000  C
  C861     1.0000 0.00704  0.73345  0.56058  Biso   1.000  C
  C862     1.0000 0.73451  0.17849  0.73194  Biso   1.000  C
  C863     1.0000 0.76952  0.11678  0.76694  Biso   1.000  C
  C864     1.0000 0.78813  0.08461  0.78556  Biso   1.000  C
  C865     1.0000 0.80401  0.05821  0.80144  Biso   1.000  C
  C866     1.0000 0.82060  0.02361  0.81803  Biso   1.000  C
  C867     1.0000 0.85247  0.96504  0.84989  Biso   1.000  C
  C868     1.0000 0.87088  0.93287  0.86830  Biso   1.000  C
  C869     1.0000 0.88423  0.90313  0.88166  Biso   1.000  C
  C870     1.0000 0.90345  0.88397  0.90088  Biso   1.000  C
  C871     1.0000 0.94179  0.81225  0.93922  Biso   1.000  C
  C872     1.0000 0.96030  0.78018  0.95773  Biso   1.000  C
  C873     1.0000 0.73451  0.37797  0.40277  Biso   1.000  C
  C874     1.0000 0.76952  0.36968  0.34106  Biso   1.000  C
  C875     1.0000 0.78813  0.36462  0.30889  Biso   1.000  C
  C876     1.0000 0.80401  0.35926  0.28249  Biso   1.000  C
  C877     1.0000 0.82060  0.36067  0.24789  Biso   1.000  C
  C878     1.0000 0.85247  0.35552  0.18932  Biso   1.000  C
  C879     1.0000 0.87088  0.35086  0.15715  Biso   1.000  C
  C880     1.0000 0.88423  0.35390  0.12741  Biso   1.000  C
  C881     1.0000 0.90345  0.34621  0.10825  Biso   1.000  C
  C882     1.0000 0.94179  0.34125  0.03653  Biso   1.000  C
  C883     1.0000 0.96030  0.33630  0.00447  Biso   1.000  C
  C884     1.0000 0.40534  0.50766  0.73194  Biso   1.000  C
  C885     1.0000 0.34363  0.54266  0.76694  Biso   1.000  C
  C886     1.0000 0.31147  0.56127  0.78556  Biso   1.000  C
  C887     1.0000 0.28506  0.57716  0.80144  Biso   1.000  C
  C888     1.0000 0.25047  0.59375  0.81803  Biso   1.000  C
  C889     1.0000 0.19190  0.62561  0.84989  Biso   1.000  C
  C890     1.0000 0.15973  0.64402  0.86830  Biso   1.000  C
  C891     1.0000 0.12999  0.65738  0.88166  Biso   1.000  C
  C892     1.0000 0.11083  0.67660  0.90088  Biso   1.000  C
  C893     1.0000 0.03911  0.71493  0.93922  Biso   1.000  C
  C894     1.0000 0.00704  0.73345  0.95773  Biso   1.000  C
  C895     1.0000 0.60483  0.50766  0.73194  Biso   1.000  C
  C896     1.0000 0.59653  0.54266  0.76694  Biso   1.000  C
  C897     1.0000 0.59148  0.56127  0.78556  Biso   1.000  C
  C898     1.0000 0.58611  0.57716  0.80144  Biso   1.000  C
  C899     1.0000 0.58753  0.59375  0.81803  Biso   1.000  C
  C900     1.0000 0.58237  0.62561  0.84989  Biso   1.000  C
  C901     1.0000 0.57772  0.64402  0.86830  Biso   1.000  C
  C902     1.0000 0.58075  0.65738  0.88166  Biso   1.000  C
  C903     1.0000 0.57306  0.67660  0.90088  Biso   1.000  C
  C904     1.0000 0.56811  0.71493  0.93922  Biso   1.000  C
  C905     1.0000 0.56315  0.73345  0.95773  Biso   1.000  C
  C906     1.0000 0.73451  0.17849  0.60226  Biso   1.000  C
  C907     1.0000 0.76952  0.11678  0.59396  Biso   1.000  C
  C908     1.0000 0.78813  0.08461  0.58890  Biso   1.000  C
  C909     1.0000 0.80401  0.05821  0.58354  Biso   1.000  C
  C910     1.0000 0.82060  0.02361  0.58496  Biso   1.000  C
  C911     1.0000 0.85247  0.96504  0.57980  Biso   1.000  C
  C912     1.0000 0.87088  0.93287  0.57515  Biso   1.000  C
  C913     1.0000 0.88423  0.90313  0.57818  Biso   1.000  C
  C914     1.0000 0.90345  0.88397  0.57049  Biso   1.000  C
  C915     1.0000 0.94179  0.81225  0.56553  Biso   1.000  C
  C916     1.0000 0.96030  0.78018  0.56058  Biso   1.000  C
  C917     1.0000 0.40534  0.37797  0.73194  Biso   1.000  C
  C918     1.0000 0.34363  0.36968  0.76694  Biso   1.000  C
  C919     1.0000 0.31147  0.36462  0.78556  Biso   1.000  C
  C920     1.0000 0.28506  0.35926  0.80144  Biso   1.000  C
  C921     1.0000 0.25047  0.36067  0.81803  Biso   1.000  C
  C922     1.0000 0.19190  0.35552  0.84989  Biso   1.000  C
  C923     1.0000 0.15973  0.35086  0.86830  Biso   1.000  C
  C924     1.0000 0.12999  0.35390  0.88166  Biso   1.000  C
  C925     1.0000 0.11083  0.34621  0.90088  Biso   1.000  C
  C926     1.0000 0.03911  0.34125  0.93922  Biso   1.000  C
  C927     1.0000 0.00704  0.33630  0.95773  Biso   1.000  C
  C928     1.0000 0.73451  0.50766  0.60226  Biso   1.000  C
  C929     1.0000 0.76952  0.54266  0.59396  Biso   1.000  C
  C930     1.0000 0.78813  0.56127  0.58890  Biso   1.000  C
  C931     1.0000 0.80401  0.57716  0.58354  Biso   1.000  C
  C932     1.0000 0.82060  0.59375  0.58496  Biso   1.000  C
  C933     1.0000 0.85247  0.62561  0.57980  Biso   1.000  C
  C934     1.0000 0.87088  0.64402  0.57515  Biso   1.000  C
  C935     1.0000 0.88423  0.65738  0.57818  Biso   1.000  C
  C936     1.0000 0.90345  0.67660  0.57049  Biso   1.000  C
  C937     1.0000 0.94179  0.71493  0.56553  Biso   1.000  C
  C938     1.0000 0.96030  0.73345  0.56058  Biso   1.000  C
  C939     1.0000 0.73451  0.50766  0.40277  Biso   1.000  C
  C940     1.0000 0.76952  0.54266  0.34106  Biso   1.000  C
  C941     1.0000 0.78813  0.56127  0.30889  Biso   1.000  C
  C942     1.0000 0.80401  0.57716  0.28249  Biso   1.000  C
  C943     1.0000 0.82060  0.59375  0.24789  Biso   1.000  C
  C944     1.0000 0.85247  0.62561  0.18932  Biso   1.000  C
  C945     1.0000 0.87088  0.64402  0.15715  Biso   1.000  C
  C946     1.0000 0.88423  0.65738  0.12741  Biso   1.000  C
  C947     1.0000 0.90345  0.67660  0.10825  Biso   1.000  C
  C948     1.0000 0.94179  0.71493  0.03653  Biso   1.000  C
  C949     1.0000 0.96030  0.73345  0.00447  Biso   1.000  C
  C950     1.0000 0.60483  0.17849  0.73194  Biso   1.000  C
  C951     1.0000 0.59653  0.11678  0.76694  Biso   1.000  C
  C952     1.0000 0.59148  0.08461  0.78556  Biso   1.000  C
  C953     1.0000 0.58611  0.05821  0.80144  Biso   1.000  C
  C954     1.0000 0.58753  0.02361  0.81803  Biso   1.000  C
  C955     1.0000 0.58237  0.96504  0.84989  Biso   1.000  C
  C956     1.0000 0.57772  0.93287  0.86830  Biso   1.000  C
  C957     1.0000 0.58075  0.90313  0.88166  Biso   1.000  C
  C958     1.0000 0.57306  0.88397  0.90088  Biso   1.000  C
  C959     1.0000 0.56811  0.81225  0.93922  Biso   1.000  C
  C960     1.0000 0.56315  0.78018  0.95773  Biso   1.000  C
  C961     1.0000 0.68080  0.01855  0.29342  Biso   1.000  C
  C962     1.0000 0.24541  0.45394  0.24284  Biso   1.000  C
  C963     1.0000 0.29599  0.01855  0.67823  Biso   1.000  C
  C964     1.0000 0.24541  0.06913  0.24284  Biso   1.000  C
  C965     1.0000 0.68080  0.06913  0.24284  Biso   1.000  C
  C966     1.0000 0.24541  0.01855  0.29342  Biso   1.000  C
  C967     1.0000 0.29599  0.45394  0.24284  Biso   1.000  C
  C968     1.0000 0.24541  0.01855  0.67823  Biso   1.000  C
  C969     1.0000 0.68080  0.01855  0.24284  Biso   1.000  C
  C970     1.0000 0.24541  0.06913  0.67823  Biso   1.000  C
  C971     1.0000 0.29599  0.01855  0.24284  Biso   1.000  C
  C972     1.0000 0.24541  0.45394  0.29342  Biso   1.000  C
  C973     1.0000 0.99419  0.33195  0.94104  Biso   1.000  C
  C974     1.0000 0.55880  0.76734  0.99162  Biso   1.000  C
  C975     1.0000 0.99419  0.71676  0.55623  Biso   1.000  C
  C976     1.0000 0.94361  0.76734  0.99162  Biso   1.000  C
  C977     1.0000 0.94361  0.33195  0.99162  Biso   1.000  C
  C978     1.0000 0.99419  0.76734  0.94104  Biso   1.000  C
  C979     1.0000 0.55880  0.71676  0.99162  Biso   1.000  C
  C980     1.0000 0.99419  0.76734  0.55623  Biso   1.000  C
  C981     1.0000 0.99419  0.33195  0.99162  Biso   1.000  C
  C982     1.0000 0.94361  0.76734  0.55623  Biso   1.000  C
  C983     1.0000 0.99419  0.71676  0.99162  Biso   1.000  C
  C984     1.0000 0.55880  0.76734  0.94104  Biso   1.000  C
  O49      1.0000 0.62759  0.34995  0.42108  Biso   1.000  O
  O50      1.0000 0.62789  0.34965  0.46852  Biso   1.000  O
  O51      1.0000 0.57681  0.40073  0.84858  Biso   1.000  O
  O52      1.0000 0.57650  0.40104  0.80114  Biso   1.000  O
  O53      1.0000 0.42365  0.62430  0.62502  Biso   1.000  O
  O54      1.0000 0.47110  0.57685  0.62532  Biso   1.000  O
  O55      1.0000 0.85115  0.19680  0.57423  Biso   1.000  O
  O56      1.0000 0.80371  0.24424  0.57393  Biso   1.000  O
  O57      1.0000 0.62759  0.19680  0.84858  Biso   1.000  O
  O58      1.0000 0.62789  0.24424  0.80114  Biso   1.000  O
  O59      1.0000 0.57681  0.62430  0.42108  Biso   1.000  O
  O60      1.0000 0.57650  0.57685  0.46852  Biso   1.000  O
  O61      1.0000 0.42365  0.40073  0.57423  Biso   1.000  O
  O62      1.0000 0.47110  0.40104  0.57393  Biso   1.000  O
  O63      1.0000 0.85115  0.34995  0.62502  Biso   1.000  O
  O64      1.0000 0.80371  0.34965  0.62532  Biso   1.000  O
  O65      1.0000 0.62759  0.62430  0.57423  Biso   1.000  O
  O66      1.0000 0.62789  0.57685  0.57393  Biso   1.000  O
  O67      1.0000 0.57681  0.19680  0.62502  Biso   1.000  O
  O68      1.0000 0.57650  0.24424  0.62532  Biso   1.000  O
  O69      1.0000 0.42365  0.34995  0.84858  Biso   1.000  O
  O70      1.0000 0.47110  0.34965  0.80114  Biso   1.000  O
  O71      1.0000 0.85115  0.40073  0.42108  Biso   1.000  O
  O72      1.0000 0.80371  0.40104  0.46852  Biso   1.000  O
  O73      1.0000 0.66279  0.38516  0.81338  Biso   1.000  O
  O74      1.0000 0.66310  0.38485  0.76593  Biso   1.000  O
  O75      1.0000 0.61201  0.43594  0.38588  Biso   1.000  O
  O76      1.0000 0.61171  0.43624  0.43332  Biso   1.000  O
  O77      1.0000 0.38845  0.58909  0.60944  Biso   1.000  O
  O78      1.0000 0.43589  0.54165  0.60913  Biso   1.000  O
  O79      1.0000 0.81595  0.16159  0.66022  Biso   1.000  O
  O80      1.0000 0.76850  0.20904  0.66052  Biso   1.000  O
  O81      1.0000 0.81595  0.38516  0.38588  Biso   1.000  O
  O82      1.0000 0.76850  0.38485  0.43332  Biso   1.000  O
  O83      1.0000 0.38845  0.43594  0.81338  Biso   1.000  O
  O84      1.0000 0.43589  0.43624  0.76593  Biso   1.000  O
  O85      1.0000 0.61201  0.58909  0.66022  Biso   1.000  O
  O86      1.0000 0.61171  0.54165  0.66052  Biso   1.000  O
  O87      1.0000 0.66279  0.16159  0.60944  Biso   1.000  O
  O88      1.0000 0.66310  0.20904  0.60913  Biso   1.000  O
  O89      1.0000 0.38845  0.38516  0.66022  Biso   1.000  O
  O90      1.0000 0.43589  0.38485  0.66052  Biso   1.000  O
  O91      1.0000 0.81595  0.43594  0.60944  Biso   1.000  O
  O92      1.0000 0.76850  0.43624  0.60913  Biso   1.000  O
  O93      1.0000 0.66279  0.58909  0.38588  Biso   1.000  O
  O94      1.0000 0.66310  0.54165  0.43332  Biso   1.000  O
  O95      1.0000 0.61201  0.16159  0.81338  Biso   1.000  O
  O96      1.0000 0.61171  0.20904  0.76593  Biso   1.000  O
  O97      1.0000 0.61201  0.43594  0.81338  Biso   1.000  O
  O98      1.0000 0.61171  0.43624  0.76593  Biso   1.000  O
  O99      1.0000 0.66279  0.38516  0.38588  Biso   1.000  O
  O100     1.0000 0.66310  0.38485  0.43332  Biso   1.000  O
  O101     1.0000 0.81595  0.16159  0.60944  Biso   1.000  O
  O102     1.0000 0.76850  0.20904  0.60913  Biso   1.000  O
  O103     1.0000 0.38845  0.58909  0.66022  Biso   1.000  O
  O104     1.0000 0.43589  0.54165  0.66052  Biso   1.000  O
  O105     1.0000 0.61201  0.58909  0.38588  Biso   1.000  O
  O106     1.0000 0.61171  0.54165  0.43332  Biso   1.000  O
  O107     1.0000 0.66279  0.16159  0.81338  Biso   1.000  O
  O108     1.0000 0.66310  0.20904  0.76593  Biso   1.000  O
  O109     1.0000 0.81595  0.38516  0.66022  Biso   1.000  O
  O110     1.0000 0.76850  0.38485  0.66052  Biso   1.000  O
  O111     1.0000 0.38845  0.43594  0.60944  Biso   1.000  O
  O112     1.0000 0.43589  0.43624  0.60913  Biso   1.000  O
  O113     1.0000 0.61201  0.16159  0.66022  Biso   1.000  O
  O114     1.0000 0.61171  0.20904  0.66052  Biso   1.000  O
  O115     1.0000 0.66279  0.58909  0.60944  Biso   1.000  O
  O116     1.0000 0.66310  0.54165  0.60913  Biso   1.000  O
  O117     1.0000 0.81595  0.43594  0.38588  Biso   1.000  O
  O118     1.0000 0.76850  0.43624  0.43332  Biso   1.000  O
  O119     1.0000 0.38845  0.38516  0.81338  Biso   1.000  O
  O120     1.0000 0.43589  0.38485  0.76593  Biso   1.000  O
  O121     1.0000 0.57681  0.40073  0.42108  Biso   1.000  O
  O122     1.0000 0.57650  0.40104  0.46852  Biso   1.000  O
  O123     1.0000 0.62759  0.34995  0.84858  Biso   1.000  O
  O124     1.0000 0.62789  0.34965  0.80114  Biso   1.000  O
  O125     1.0000 0.85115  0.19680  0.62502  Biso   1.000  O
  O126     1.0000 0.80371  0.24424  0.62532  Biso   1.000  O
  O127     1.0000 0.42365  0.62430  0.57423  Biso   1.000  O
  O128     1.0000 0.47110  0.57685  0.57393  Biso   1.000  O
  O129     1.0000 0.42365  0.40073  0.84858  Biso   1.000  O
  O130     1.0000 0.47110  0.40104  0.80114  Biso   1.000  O
  O131     1.0000 0.85115  0.34995  0.42108  Biso   1.000  O
  O132     1.0000 0.80371  0.34965  0.46852  Biso   1.000  O
  O133     1.0000 0.62759  0.19680  0.57423  Biso   1.000  O
  O134     1.0000 0.62789  0.24424  0.57393  Biso   1.000  O
  O135     1.0000 0.57681  0.62430  0.62502  Biso   1.000  O
  O136     1.0000 0.57650  0.57685  0.62532  Biso   1.000  O
  O137     1.0000 0.85115  0.40073  0.57423  Biso   1.000  O
  O138     1.0000 0.80371  0.40104  0.57393  Biso   1.000  O
  O139     1.0000 0.42365  0.34995  0.62502  Biso   1.000  O
  O140     1.0000 0.47110  0.34965  0.62532  Biso   1.000  O
  O141     1.0000 0.57681  0.19680  0.84858  Biso   1.000  O
  O142     1.0000 0.57650  0.24424  0.80114  Biso   1.000  O
  O143     1.0000 0.62759  0.62430  0.42108  Biso   1.000  O
  O144     1.0000 0.62789  0.57685  0.46852  Biso   1.000  O
