data_image0
_cell_length_a       59.153
_cell_length_b       59.153
_cell_length_c       59.153
_cell_angle_alpha    90
_cell_angle_beta     90
_cell_angle_gamma    90

_symmetry_space_group_name_H-M    "P 1"
_symmetry_int_tables_number       1

loop_
  _symmetry_equiv_pos_as_xyz
  'x, y, z'

loop_
  _atom_site_label
  _atom_site_occupancy
  _atom_site_fract_x
  _atom_site_fract_y
  _atom_site_fract_z
  _atom_site_thermal_displace_type
  _atom_site_B_iso_or_equiv
  _atom_site_type_symbol
  C1       1.0000 0.00000  0.09537  0.09537  Biso   1.000  C
  C2       1.0000 0.90463  0.00000  0.09537  Biso   1.000  C
  C3       1.0000 0.00000  0.90463  0.09537  Biso   1.000  C
  C4       1.0000 0.09537  0.00000  0.09537  Biso   1.000  C
  C5       1.0000 0.00000  0.90463  0.90463  Biso   1.000  C
  C6       1.0000 0.00000  0.09537  0.90463  Biso   1.000  C
  C7       1.0000 0.09537  0.09537  0.00000  Biso   1.000  C
  C8       1.0000 0.90463  0.09537  0.00000  Biso   1.000  C
  C9       1.0000 0.90463  0.90463  0.00000  Biso   1.000  C
  C10      1.0000 0.09537  0.00000  0.90463  Biso   1.000  C
  C11      1.0000 0.90463  0.00000  0.90463  Biso   1.000  C
  C12      1.0000 0.09537  0.90463  0.00000  Biso   1.000  C
  C13      1.0000 0.00000  0.59537  0.59537  Biso   1.000  C
  C14      1.0000 0.90463  0.50000  0.59537  Biso   1.000  C
  C15      1.0000 0.00000  0.40463  0.59537  Biso   1.000  C
  C16      1.0000 0.09537  0.50000  0.59537  Biso   1.000  C
  C17      1.0000 0.00000  0.40463  0.40463  Biso   1.000  C
  C18      1.0000 0.00000  0.59537  0.40463  Biso   1.000  C
  C19      1.0000 0.09537  0.59537  0.50000  Biso   1.000  C
  C20      1.0000 0.90463  0.59537  0.50000  Biso   1.000  C
  C21      1.0000 0.90463  0.40463  0.50000  Biso   1.000  C
  C22      1.0000 0.09537  0.50000  0.40463  Biso   1.000  C
  C23      1.0000 0.90463  0.50000  0.40463  Biso   1.000  C
  C24      1.0000 0.09537  0.40463  0.50000  Biso   1.000  C
  C25      1.0000 0.50000  0.09537  0.59537  Biso   1.000  C
  C26      1.0000 0.40463  0.00000  0.59537  Biso   1.000  C
  C27      1.0000 0.50000  0.90463  0.59537  Biso   1.000  C
  C28      1.0000 0.59537  0.00000  0.59537  Biso   1.000  C
  C29      1.0000 0.50000  0.90463  0.40463  Biso   1.000  C
  C30      1.0000 0.50000  0.09537  0.40463  Biso   1.000  C
  C31      1.0000 0.59537  0.09537  0.50000  Biso   1.000  C
  C32      1.0000 0.40463  0.09537  0.50000  Biso   1.000  C
  C33      1.0000 0.40463  0.90463  0.50000  Biso   1.000  C
  C34      1.0000 0.59537  0.00000  0.40463  Biso   1.000  C
  C35      1.0000 0.40463  0.00000  0.40463  Biso   1.000  C
  C36      1.0000 0.59537  0.90463  0.50000  Biso   1.000  C
  C37      1.0000 0.50000  0.59537  0.09537  Biso   1.000  C
  C38      1.0000 0.40463  0.50000  0.09537  Biso   1.000  C
  C39      1.0000 0.50000  0.40463  0.09537  Biso   1.000  C
  C40      1.0000 0.59537  0.50000  0.09537  Biso   1.000  C
  C41      1.0000 0.50000  0.40463  0.90463  Biso   1.000  C
  C42      1.0000 0.50000  0.59537  0.90463  Biso   1.000  C
  C43      1.0000 0.59537  0.59537  0.00000  Biso   1.000  C
  C44      1.0000 0.40463  0.59537  0.00000  Biso   1.000  C
  C45      1.0000 0.40463  0.40463  0.00000  Biso   1.000  C
  C46      1.0000 0.59537  0.50000  0.90463  Biso   1.000  C
  C47      1.0000 0.40463  0.50000  0.90463  Biso   1.000  C
  C48      1.0000 0.59537  0.40463  0.00000  Biso   1.000  C
  C49      1.0000 0.00000  0.12700  0.12700  Biso   1.000  C
  C50      1.0000 0.87300  0.00000  0.12700  Biso   1.000  C
  C51      1.0000 0.00000  0.87300  0.12700  Biso   1.000  C
  C52      1.0000 0.12700  0.00000  0.12700  Biso   1.000  C
  C53      1.0000 0.00000  0.87300  0.87300  Biso   1.000  C
  C54      1.0000 0.00000  0.12700  0.87300  Biso   1.000  C
  C55      1.0000 0.12700  0.12700  0.00000  Biso   1.000  C
  C56      1.0000 0.87300  0.12700  0.00000  Biso   1.000  C
  C57      1.0000 0.87300  0.87300  0.00000  Biso   1.000  C
  C58      1.0000 0.12700  0.00000  0.87300  Biso   1.000  C
  C59      1.0000 0.87300  0.00000  0.87300  Biso   1.000  C
  C60      1.0000 0.12700  0.87300  0.00000  Biso   1.000  C
  C61      1.0000 0.00000  0.62700  0.62700  Biso   1.000  C
  C62      1.0000 0.87300  0.50000  0.62700  Biso   1.000  C
  C63      1.0000 0.00000  0.37300  0.62700  Biso   1.000  C
  C64      1.0000 0.12700  0.50000  0.62700  Biso   1.000  C
  C65      1.0000 0.00000  0.37300  0.37300  Biso   1.000  C
  C66      1.0000 0.00000  0.62700  0.37300  Biso   1.000  C
  C67      1.0000 0.12700  0.62700  0.50000  Biso   1.000  C
  C68      1.0000 0.87300  0.62700  0.50000  Biso   1.000  C
  C69      1.0000 0.87300  0.37300  0.50000  Biso   1.000  C
  C70      1.0000 0.12700  0.50000  0.37300  Biso   1.000  C
  C71      1.0000 0.87300  0.50000  0.37300  Biso   1.000  C
  C72      1.0000 0.12700  0.37300  0.50000  Biso   1.000  C
  C73      1.0000 0.50000  0.12700  0.62700  Biso   1.000  C
  C74      1.0000 0.37300  0.00000  0.62700  Biso   1.000  C
  C75      1.0000 0.50000  0.87300  0.62700  Biso   1.000  C
  C76      1.0000 0.62700  0.00000  0.62700  Biso   1.000  C
  C77      1.0000 0.50000  0.87300  0.37300  Biso   1.000  C
  C78      1.0000 0.50000  0.12700  0.37300  Biso   1.000  C
  C79      1.0000 0.62700  0.12700  0.50000  Biso   1.000  C
  C80      1.0000 0.37300  0.12700  0.50000  Biso   1.000  C
  C81      1.0000 0.37300  0.87300  0.50000  Biso   1.000  C
  C82      1.0000 0.62700  0.00000  0.37300  Biso   1.000  C
  C83      1.0000 0.37300  0.00000  0.37300  Biso   1.000  C
  C84      1.0000 0.62700  0.87300  0.50000  Biso   1.000  C
  C85      1.0000 0.50000  0.62700  0.12700  Biso   1.000  C
  C86      1.0000 0.37300  0.50000  0.12700  Biso   1.000  C
  C87      1.0000 0.50000  0.37300  0.12700  Biso   1.000  C
  C88      1.0000 0.62700  0.50000  0.12700  Biso   1.000  C
  C89      1.0000 0.50000  0.37300  0.87300  Biso   1.000  C
  C90      1.0000 0.50000  0.62700  0.87300  Biso   1.000  C
  C91      1.0000 0.62700  0.62700  0.00000  Biso   1.000  C
  C92      1.0000 0.37300  0.62700  0.00000  Biso   1.000  C
  C93      1.0000 0.37300  0.37300  0.00000  Biso   1.000  C
  C94      1.0000 0.62700  0.50000  0.87300  Biso   1.000  C
  C95      1.0000 0.37300  0.50000  0.87300  Biso   1.000  C
  C96      1.0000 0.62700  0.37300  0.00000  Biso   1.000  C
  C97      1.0000 0.02320  0.08177  0.11390  Biso   1.000  C
  C98      1.0000 0.91823  0.02320  0.11390  Biso   1.000  C
  C99      1.0000 0.97680  0.91823  0.11390  Biso   1.000  C
  C100     1.0000 0.08177  0.97680  0.11390  Biso   1.000  C
  C101     1.0000 0.02320  0.88610  0.08177  Biso   1.000  C
  C102     1.0000 0.02320  0.91823  0.88610  Biso   1.000  C
  C103     1.0000 0.02320  0.11390  0.91823  Biso   1.000  C
  C104     1.0000 0.11390  0.08177  0.97680  Biso   1.000  C
  C105     1.0000 0.97680  0.08177  0.88610  Biso   1.000  C
  C106     1.0000 0.88610  0.08177  0.02320  Biso   1.000  C
  C107     1.0000 0.11390  0.02320  0.08177  Biso   1.000  C
  C108     1.0000 0.08177  0.11390  0.02320  Biso   1.000  C
  C109     1.0000 0.91823  0.88610  0.02320  Biso   1.000  C
  C110     1.0000 0.11390  0.97680  0.91823  Biso   1.000  C
  C111     1.0000 0.91823  0.11390  0.97680  Biso   1.000  C
  C112     1.0000 0.88610  0.97680  0.08177  Biso   1.000  C
  C113     1.0000 0.88610  0.02320  0.91823  Biso   1.000  C
  C114     1.0000 0.08177  0.88610  0.97680  Biso   1.000  C
  C115     1.0000 0.08177  0.02320  0.88610  Biso   1.000  C
  C116     1.0000 0.91823  0.97680  0.88610  Biso   1.000  C
  C117     1.0000 0.97680  0.11390  0.08177  Biso   1.000  C
  C118     1.0000 0.97680  0.88610  0.91823  Biso   1.000  C
  C119     1.0000 0.11390  0.91823  0.02320  Biso   1.000  C
  C120     1.0000 0.88610  0.91823  0.97680  Biso   1.000  C
  C121     1.0000 0.02320  0.58177  0.61390  Biso   1.000  C
  C122     1.0000 0.91823  0.52320  0.61390  Biso   1.000  C
  C123     1.0000 0.97680  0.41823  0.61390  Biso   1.000  C
  C124     1.0000 0.08177  0.47680  0.61390  Biso   1.000  C
  C125     1.0000 0.02320  0.38610  0.58177  Biso   1.000  C
  C126     1.0000 0.02320  0.41823  0.38610  Biso   1.000  C
  C127     1.0000 0.02320  0.61390  0.41823  Biso   1.000  C
  C128     1.0000 0.11390  0.58177  0.47680  Biso   1.000  C
  C129     1.0000 0.97680  0.58177  0.38610  Biso   1.000  C
  C130     1.0000 0.88610  0.58177  0.52320  Biso   1.000  C
  C131     1.0000 0.11390  0.52320  0.58177  Biso   1.000  C
  C132     1.0000 0.08177  0.61390  0.52320  Biso   1.000  C
  C133     1.0000 0.91823  0.38610  0.52320  Biso   1.000  C
  C134     1.0000 0.11390  0.47680  0.41823  Biso   1.000  C
  C135     1.0000 0.91823  0.61390  0.47680  Biso   1.000  C
  C136     1.0000 0.88610  0.47680  0.58177  Biso   1.000  C
  C137     1.0000 0.88610  0.52320  0.41823  Biso   1.000  C
  C138     1.0000 0.08177  0.38610  0.47680  Biso   1.000  C
  C139     1.0000 0.08177  0.52320  0.38610  Biso   1.000  C
  C140     1.0000 0.91823  0.47680  0.38610  Biso   1.000  C
  C141     1.0000 0.97680  0.61390  0.58177  Biso   1.000  C
  C142     1.0000 0.97680  0.38610  0.41823  Biso   1.000  C
  C143     1.0000 0.11390  0.41823  0.52320  Biso   1.000  C
  C144     1.0000 0.88610  0.41823  0.47680  Biso   1.000  C
  C145     1.0000 0.52320  0.08177  0.61390  Biso   1.000  C
  C146     1.0000 0.41823  0.02320  0.61390  Biso   1.000  C
  C147     1.0000 0.47680  0.91823  0.61390  Biso   1.000  C
  C148     1.0000 0.58177  0.97680  0.61390  Biso   1.000  C
  C149     1.0000 0.52320  0.88610  0.58177  Biso   1.000  C
  C150     1.0000 0.52320  0.91823  0.38610  Biso   1.000  C
  C151     1.0000 0.52320  0.11390  0.41823  Biso   1.000  C
  C152     1.0000 0.61390  0.08177  0.47680  Biso   1.000  C
  C153     1.0000 0.47680  0.08177  0.38610  Biso   1.000  C
  C154     1.0000 0.38610  0.08177  0.52320  Biso   1.000  C
  C155     1.0000 0.61390  0.02320  0.58177  Biso   1.000  C
  C156     1.0000 0.58177  0.11390  0.52320  Biso   1.000  C
  C157     1.0000 0.41823  0.88610  0.52320  Biso   1.000  C
  C158     1.0000 0.61390  0.97680  0.41823  Biso   1.000  C
  C159     1.0000 0.41823  0.11390  0.47680  Biso   1.000  C
  C160     1.0000 0.38610  0.97680  0.58177  Biso   1.000  C
  C161     1.0000 0.38610  0.02320  0.41823  Biso   1.000  C
  C162     1.0000 0.58177  0.88610  0.47680  Biso   1.000  C
  C163     1.0000 0.58177  0.02320  0.38610  Biso   1.000  C
  C164     1.0000 0.41823  0.97680  0.38610  Biso   1.000  C
  C165     1.0000 0.47680  0.11390  0.58177  Biso   1.000  C
  C166     1.0000 0.47680  0.88610  0.41823  Biso   1.000  C
  C167     1.0000 0.61390  0.91823  0.52320  Biso   1.000  C
  C168     1.0000 0.38610  0.91823  0.47680  Biso   1.000  C
  C169     1.0000 0.52320  0.58177  0.11390  Biso   1.000  C
  C170     1.0000 0.41823  0.52320  0.11390  Biso   1.000  C
  C171     1.0000 0.47680  0.41823  0.11390  Biso   1.000  C
  C172     1.0000 0.58177  0.47680  0.11390  Biso   1.000  C
  C173     1.0000 0.52320  0.38610  0.08177  Biso   1.000  C
  C174     1.0000 0.52320  0.41823  0.88610  Biso   1.000  C
  C175     1.0000 0.52320  0.61390  0.91823  Biso   1.000  C
  C176     1.0000 0.61390  0.58177  0.97680  Biso   1.000  C
  C177     1.0000 0.47680  0.58177  0.88610  Biso   1.000  C
  C178     1.0000 0.38610  0.58177  0.02320  Biso   1.000  C
  C179     1.0000 0.61390  0.52320  0.08177  Biso   1.000  C
  C180     1.0000 0.58177  0.61390  0.02320  Biso   1.000  C
  C181     1.0000 0.41823  0.38610  0.02320  Biso   1.000  C
  C182     1.0000 0.61390  0.47680  0.91823  Biso   1.000  C
  C183     1.0000 0.41823  0.61390  0.97680  Biso   1.000  C
  C184     1.0000 0.38610  0.47680  0.08177  Biso   1.000  C
  C185     1.0000 0.38610  0.52320  0.91823  Biso   1.000  C
  C186     1.0000 0.58177  0.38610  0.97680  Biso   1.000  C
  C187     1.0000 0.58177  0.52320  0.88610  Biso   1.000  C
  C188     1.0000 0.41823  0.47680  0.88610  Biso   1.000  C
  C189     1.0000 0.47680  0.61390  0.08177  Biso   1.000  C
  C190     1.0000 0.47680  0.38610  0.91823  Biso   1.000  C
  C191     1.0000 0.61390  0.41823  0.02320  Biso   1.000  C
  C192     1.0000 0.38610  0.41823  0.97680  Biso   1.000  C
  C193     1.0000 0.97680  0.91823  0.88610  Biso   1.000  C
  C194     1.0000 0.08177  0.97680  0.88610  Biso   1.000  C
  C195     1.0000 0.02320  0.08177  0.88610  Biso   1.000  C
  C196     1.0000 0.91823  0.02320  0.88610  Biso   1.000  C
  C197     1.0000 0.97680  0.11390  0.91823  Biso   1.000  C
  C198     1.0000 0.97680  0.08177  0.11390  Biso   1.000  C
  C199     1.0000 0.97680  0.88610  0.08177  Biso   1.000  C
  C200     1.0000 0.88610  0.91823  0.02320  Biso   1.000  C
  C201     1.0000 0.02320  0.91823  0.11390  Biso   1.000  C
  C202     1.0000 0.11390  0.91823  0.97680  Biso   1.000  C
  C203     1.0000 0.88610  0.97680  0.91823  Biso   1.000  C
  C204     1.0000 0.91823  0.88610  0.97680  Biso   1.000  C
  C205     1.0000 0.08177  0.11390  0.97680  Biso   1.000  C
  C206     1.0000 0.88610  0.02320  0.08177  Biso   1.000  C
  C207     1.0000 0.08177  0.88610  0.02320  Biso   1.000  C
  C208     1.0000 0.11390  0.02320  0.91823  Biso   1.000  C
  C209     1.0000 0.11390  0.97680  0.08177  Biso   1.000  C
  C210     1.0000 0.91823  0.11390  0.02320  Biso   1.000  C
  C211     1.0000 0.91823  0.97680  0.11390  Biso   1.000  C
  C212     1.0000 0.08177  0.02320  0.11390  Biso   1.000  C
  C213     1.0000 0.02320  0.88610  0.91823  Biso   1.000  C
  C214     1.0000 0.02320  0.11390  0.08177  Biso   1.000  C
  C215     1.0000 0.88610  0.08177  0.97680  Biso   1.000  C
  C216     1.0000 0.11390  0.08177  0.02320  Biso   1.000  C
  C217     1.0000 0.97680  0.41823  0.38610  Biso   1.000  C
  C218     1.0000 0.08177  0.47680  0.38610  Biso   1.000  C
  C219     1.0000 0.02320  0.58177  0.38610  Biso   1.000  C
  C220     1.0000 0.91823  0.52320  0.38610  Biso   1.000  C
  C221     1.0000 0.97680  0.61390  0.41823  Biso   1.000  C
  C222     1.0000 0.97680  0.58177  0.61390  Biso   1.000  C
  C223     1.0000 0.97680  0.38610  0.58177  Biso   1.000  C
  C224     1.0000 0.88610  0.41823  0.52320  Biso   1.000  C
  C225     1.0000 0.02320  0.41823  0.61390  Biso   1.000  C
  C226     1.0000 0.11390  0.41823  0.47680  Biso   1.000  C
  C227     1.0000 0.88610  0.47680  0.41823  Biso   1.000  C
  C228     1.0000 0.91823  0.38610  0.47680  Biso   1.000  C
  C229     1.0000 0.08177  0.61390  0.47680  Biso   1.000  C
  C230     1.0000 0.88610  0.52320  0.58177  Biso   1.000  C
  C231     1.0000 0.08177  0.38610  0.52320  Biso   1.000  C
  C232     1.0000 0.11390  0.52320  0.41823  Biso   1.000  C
  C233     1.0000 0.11390  0.47680  0.58177  Biso   1.000  C
  C234     1.0000 0.91823  0.61390  0.52320  Biso   1.000  C
  C235     1.0000 0.91823  0.47680  0.61390  Biso   1.000  C
  C236     1.0000 0.08177  0.52320  0.61390  Biso   1.000  C
  C237     1.0000 0.02320  0.38610  0.41823  Biso   1.000  C
  C238     1.0000 0.02320  0.61390  0.58177  Biso   1.000  C
  C239     1.0000 0.88610  0.58177  0.47680  Biso   1.000  C
  C240     1.0000 0.11390  0.58177  0.52320  Biso   1.000  C
  C241     1.0000 0.47680  0.91823  0.38610  Biso   1.000  C
  C242     1.0000 0.58177  0.97680  0.38610  Biso   1.000  C
  C243     1.0000 0.52320  0.08177  0.38610  Biso   1.000  C
  C244     1.0000 0.41823  0.02320  0.38610  Biso   1.000  C
  C245     1.0000 0.47680  0.11390  0.41823  Biso   1.000  C
  C246     1.0000 0.47680  0.08177  0.61390  Biso   1.000  C
  C247     1.0000 0.47680  0.88610  0.58177  Biso   1.000  C
  C248     1.0000 0.38610  0.91823  0.52320  Biso   1.000  C
  C249     1.0000 0.52320  0.91823  0.61390  Biso   1.000  C
  C250     1.0000 0.61390  0.91823  0.47680  Biso   1.000  C
  C251     1.0000 0.38610  0.97680  0.41823  Biso   1.000  C
  C252     1.0000 0.41823  0.88610  0.47680  Biso   1.000  C
  C253     1.0000 0.58177  0.11390  0.47680  Biso   1.000  C
  C254     1.0000 0.38610  0.02320  0.58177  Biso   1.000  C
  C255     1.0000 0.58177  0.88610  0.52320  Biso   1.000  C
  C256     1.0000 0.61390  0.02320  0.41823  Biso   1.000  C
  C257     1.0000 0.61390  0.97680  0.58177  Biso   1.000  C
  C258     1.0000 0.41823  0.11390  0.52320  Biso   1.000  C
  C259     1.0000 0.41823  0.97680  0.61390  Biso   1.000  C
  C260     1.0000 0.58177  0.02320  0.61390  Biso   1.000  C
  C261     1.0000 0.52320  0.88610  0.41823  Biso   1.000  C
  C262     1.0000 0.52320  0.11390  0.58177  Biso   1.000  C
  C263     1.0000 0.38610  0.08177  0.47680  Biso   1.000  C
  C264     1.0000 0.61390  0.08177  0.52320  Biso   1.000  C
  C265     1.0000 0.47680  0.41823  0.88610  Biso   1.000  C
  C266     1.0000 0.58177  0.47680  0.88610  Biso   1.000  C
  C267     1.0000 0.52320  0.58177  0.88610  Biso   1.000  C
  C268     1.0000 0.41823  0.52320  0.88610  Biso   1.000  C
  C269     1.0000 0.47680  0.61390  0.91823  Biso   1.000  C
  C270     1.0000 0.47680  0.58177  0.11390  Biso   1.000  C
  C271     1.0000 0.47680  0.38610  0.08177  Biso   1.000  C
  C272     1.0000 0.38610  0.41823  0.02320  Biso   1.000  C
  C273     1.0000 0.52320  0.41823  0.11390  Biso   1.000  C
  C274     1.0000 0.61390  0.41823  0.97680  Biso   1.000  C
  C275     1.0000 0.38610  0.47680  0.91823  Biso   1.000  C
  C276     1.0000 0.41823  0.38610  0.97680  Biso   1.000  C
  C277     1.0000 0.58177  0.61390  0.97680  Biso   1.000  C
  C278     1.0000 0.38610  0.52320  0.08177  Biso   1.000  C
  C279     1.0000 0.58177  0.38610  0.02320  Biso   1.000  C
  C280     1.0000 0.61390  0.52320  0.91823  Biso   1.000  C
  C281     1.0000 0.61390  0.47680  0.08177  Biso   1.000  C
  C282     1.0000 0.41823  0.61390  0.02320  Biso   1.000  C
  C283     1.0000 0.41823  0.47680  0.11390  Biso   1.000  C
  C284     1.0000 0.58177  0.52320  0.11390  Biso   1.000  C
  C285     1.0000 0.52320  0.38610  0.91823  Biso   1.000  C
  C286     1.0000 0.52320  0.61390  0.08177  Biso   1.000  C
  C287     1.0000 0.38610  0.58177  0.97680  Biso   1.000  C
  C288     1.0000 0.61390  0.58177  0.02320  Biso   1.000  C
  C289     1.0000 0.02290  0.10800  0.14090  Biso   1.000  C
  C290     1.0000 0.89200  0.02290  0.14090  Biso   1.000  C
  C291     1.0000 0.97710  0.89200  0.14090  Biso   1.000  C
  C292     1.0000 0.10800  0.97710  0.14090  Biso   1.000  C
  C293     1.0000 0.02290  0.85910  0.10800  Biso   1.000  C
  C294     1.0000 0.02290  0.89200  0.85910  Biso   1.000  C
  C295     1.0000 0.02290  0.14090  0.89200  Biso   1.000  C
  C296     1.0000 0.14090  0.10800  0.97710  Biso   1.000  C
  C297     1.0000 0.97710  0.10800  0.85910  Biso   1.000  C
  C298     1.0000 0.85910  0.10800  0.02290  Biso   1.000  C
  C299     1.0000 0.14090  0.02290  0.10800  Biso   1.000  C
  C300     1.0000 0.10800  0.14090  0.02290  Biso   1.000  C
  C301     1.0000 0.89200  0.85910  0.02290  Biso   1.000  C
  C302     1.0000 0.14090  0.97710  0.89200  Biso   1.000  C
  C303     1.0000 0.89200  0.14090  0.97710  Biso   1.000  C
  C304     1.0000 0.85910  0.97710  0.10800  Biso   1.000  C
  C305     1.0000 0.85910  0.02290  0.89200  Biso   1.000  C
  C306     1.0000 0.10800  0.85910  0.97710  Biso   1.000  C
  C307     1.0000 0.10800  0.02290  0.85910  Biso   1.000  C
  C308     1.0000 0.89200  0.97710  0.85910  Biso   1.000  C
  C309     1.0000 0.97710  0.14090  0.10800  Biso   1.000  C
  C310     1.0000 0.97710  0.85910  0.89200  Biso   1.000  C
  C311     1.0000 0.14090  0.89200  0.02290  Biso   1.000  C
  C312     1.0000 0.85910  0.89200  0.97710  Biso   1.000  C
  C313     1.0000 0.02290  0.60800  0.64090  Biso   1.000  C
  C314     1.0000 0.89200  0.52290  0.64090  Biso   1.000  C
  C315     1.0000 0.97710  0.39200  0.64090  Biso   1.000  C
  C316     1.0000 0.10800  0.47710  0.64090  Biso   1.000  C
  C317     1.0000 0.02290  0.35910  0.60800  Biso   1.000  C
  C318     1.0000 0.02290  0.39200  0.35910  Biso   1.000  C
  C319     1.0000 0.02290  0.64090  0.39200  Biso   1.000  C
  C320     1.0000 0.14090  0.60800  0.47710  Biso   1.000  C
  C321     1.0000 0.97710  0.60800  0.35910  Biso   1.000  C
  C322     1.0000 0.85910  0.60800  0.52290  Biso   1.000  C
  C323     1.0000 0.14090  0.52290  0.60800  Biso   1.000  C
  C324     1.0000 0.10800  0.64090  0.52290  Biso   1.000  C
  C325     1.0000 0.89200  0.35910  0.52290  Biso   1.000  C
  C326     1.0000 0.14090  0.47710  0.39200  Biso   1.000  C
  C327     1.0000 0.89200  0.64090  0.47710  Biso   1.000  C
  C328     1.0000 0.85910  0.47710  0.60800  Biso   1.000  C
  C329     1.0000 0.85910  0.52290  0.39200  Biso   1.000  C
  C330     1.0000 0.10800  0.35910  0.47710  Biso   1.000  C
  C331     1.0000 0.10800  0.52290  0.35910  Biso   1.000  C
  C332     1.0000 0.89200  0.47710  0.35910  Biso   1.000  C
  C333     1.0000 0.97710  0.64090  0.60800  Biso   1.000  C
  C334     1.0000 0.97710  0.35910  0.39200  Biso   1.000  C
  C335     1.0000 0.14090  0.39200  0.52290  Biso   1.000  C
  C336     1.0000 0.85910  0.39200  0.47710  Biso   1.000  C
  C337     1.0000 0.52290  0.10800  0.64090  Biso   1.000  C
  C338     1.0000 0.39200  0.02290  0.64090  Biso   1.000  C
  C339     1.0000 0.47710  0.89200  0.64090  Biso   1.000  C
  C340     1.0000 0.60800  0.97710  0.64090  Biso   1.000  C
  C341     1.0000 0.52290  0.85910  0.60800  Biso   1.000  C
  C342     1.0000 0.52290  0.89200  0.35910  Biso   1.000  C
  C343     1.0000 0.52290  0.14090  0.39200  Biso   1.000  C
  C344     1.0000 0.64090  0.10800  0.47710  Biso   1.000  C
  C345     1.0000 0.47710  0.10800  0.35910  Biso   1.000  C
  C346     1.0000 0.35910  0.10800  0.52290  Biso   1.000  C
  C347     1.0000 0.64090  0.02290  0.60800  Biso   1.000  C
  C348     1.0000 0.60800  0.14090  0.52290  Biso   1.000  C
  C349     1.0000 0.39200  0.85910  0.52290  Biso   1.000  C
  C350     1.0000 0.64090  0.97710  0.39200  Biso   1.000  C
  C351     1.0000 0.39200  0.14090  0.47710  Biso   1.000  C
  C352     1.0000 0.35910  0.97710  0.60800  Biso   1.000  C
  C353     1.0000 0.35910  0.02290  0.39200  Biso   1.000  C
  C354     1.0000 0.60800  0.85910  0.47710  Biso   1.000  C
  C355     1.0000 0.60800  0.02290  0.35910  Biso   1.000  C
  C356     1.0000 0.39200  0.97710  0.35910  Biso   1.000  C
  C357     1.0000 0.47710  0.14090  0.60800  Biso   1.000  C
  C358     1.0000 0.47710  0.85910  0.39200  Biso   1.000  C
  C359     1.0000 0.64090  0.89200  0.52290  Biso   1.000  C
  C360     1.0000 0.35910  0.89200  0.47710  Biso   1.000  C
  C361     1.0000 0.52290  0.60800  0.14090  Biso   1.000  C
  C362     1.0000 0.39200  0.52290  0.14090  Biso   1.000  C
  C363     1.0000 0.47710  0.39200  0.14090  Biso   1.000  C
  C364     1.0000 0.60800  0.47710  0.14090  Biso   1.000  C
  C365     1.0000 0.52290  0.35910  0.10800  Biso   1.000  C
  C366     1.0000 0.52290  0.39200  0.85910  Biso   1.000  C
  C367     1.0000 0.52290  0.64090  0.89200  Biso   1.000  C
  C368     1.0000 0.64090  0.60800  0.97710  Biso   1.000  C
  C369     1.0000 0.47710  0.60800  0.85910  Biso   1.000  C
  C370     1.0000 0.35910  0.60800  0.02290  Biso   1.000  C
  C371     1.0000 0.64090  0.52290  0.10800  Biso   1.000  C
  C372     1.0000 0.60800  0.64090  0.02290  Biso   1.000  C
  C373     1.0000 0.39200  0.35910  0.02290  Biso   1.000  C
  C374     1.0000 0.64090  0.47710  0.89200  Biso   1.000  C
  C375     1.0000 0.39200  0.64090  0.97710  Biso   1.000  C
  C376     1.0000 0.35910  0.47710  0.10800  Biso   1.000  C
  C377     1.0000 0.35910  0.52290  0.89200  Biso   1.000  C
  C378     1.0000 0.60800  0.35910  0.97710  Biso   1.000  C
  C379     1.0000 0.60800  0.52290  0.85910  Biso   1.000  C
  C380     1.0000 0.39200  0.47710  0.85910  Biso   1.000  C
  C381     1.0000 0.47710  0.64090  0.10800  Biso   1.000  C
  C382     1.0000 0.47710  0.35910  0.89200  Biso   1.000  C
  C383     1.0000 0.64090  0.39200  0.02290  Biso   1.000  C
  C384     1.0000 0.35910  0.39200  0.97710  Biso   1.000  C
  C385     1.0000 0.97710  0.89200  0.85910  Biso   1.000  C
  C386     1.0000 0.10800  0.97710  0.85910  Biso   1.000  C
  C387     1.0000 0.02290  0.10800  0.85910  Biso   1.000  C
  C388     1.0000 0.89200  0.02290  0.85910  Biso   1.000  C
  C389     1.0000 0.97710  0.14090  0.89200  Biso   1.000  C
  C390     1.0000 0.97710  0.10800  0.14090  Biso   1.000  C
  C391     1.0000 0.97710  0.85910  0.10800  Biso   1.000  C
  C392     1.0000 0.85910  0.89200  0.02290  Biso   1.000  C
  C393     1.0000 0.02290  0.89200  0.14090  Biso   1.000  C
  C394     1.0000 0.14090  0.89200  0.97710  Biso   1.000  C
  C395     1.0000 0.85910  0.97710  0.89200  Biso   1.000  C
  C396     1.0000 0.89200  0.85910  0.97710  Biso   1.000  C
  C397     1.0000 0.10800  0.14090  0.97710  Biso   1.000  C
  C398     1.0000 0.85910  0.02290  0.10800  Biso   1.000  C
  C399     1.0000 0.10800  0.85910  0.02290  Biso   1.000  C
  C400     1.0000 0.14090  0.02290  0.89200  Biso   1.000  C
  C401     1.0000 0.14090  0.97710  0.10800  Biso   1.000  C
  C402     1.0000 0.89200  0.14090  0.02290  Biso   1.000  C
  C403     1.0000 0.89200  0.97710  0.14090  Biso   1.000  C
  C404     1.0000 0.10800  0.02290  0.14090  Biso   1.000  C
  C405     1.0000 0.02290  0.85910  0.89200  Biso   1.000  C
  C406     1.0000 0.02290  0.14090  0.10800  Biso   1.000  C
  C407     1.0000 0.85910  0.10800  0.97710  Biso   1.000  C
  C408     1.0000 0.14090  0.10800  0.02290  Biso   1.000  C
  C409     1.0000 0.97710  0.39200  0.35910  Biso   1.000  C
  C410     1.0000 0.10800  0.47710  0.35910  Biso   1.000  C
  C411     1.0000 0.02290  0.60800  0.35910  Biso   1.000  C
  C412     1.0000 0.89200  0.52290  0.35910  Biso   1.000  C
  C413     1.0000 0.97710  0.64090  0.39200  Biso   1.000  C
  C414     1.0000 0.97710  0.60800  0.64090  Biso   1.000  C
  C415     1.0000 0.97710  0.35910  0.60800  Biso   1.000  C
  C416     1.0000 0.85910  0.39200  0.52290  Biso   1.000  C
  C417     1.0000 0.02290  0.39200  0.64090  Biso   1.000  C
  C418     1.0000 0.14090  0.39200  0.47710  Biso   1.000  C
  C419     1.0000 0.85910  0.47710  0.39200  Biso   1.000  C
  C420     1.0000 0.89200  0.35910  0.47710  Biso   1.000  C
  C421     1.0000 0.10800  0.64090  0.47710  Biso   1.000  C
  C422     1.0000 0.85910  0.52290  0.60800  Biso   1.000  C
  C423     1.0000 0.10800  0.35910  0.52290  Biso   1.000  C
  C424     1.0000 0.14090  0.52290  0.39200  Biso   1.000  C
  C425     1.0000 0.14090  0.47710  0.60800  Biso   1.000  C
  C426     1.0000 0.89200  0.64090  0.52290  Biso   1.000  C
  C427     1.0000 0.89200  0.47710  0.64090  Biso   1.000  C
  C428     1.0000 0.10800  0.52290  0.64090  Biso   1.000  C
  C429     1.0000 0.02290  0.35910  0.39200  Biso   1.000  C
  C430     1.0000 0.02290  0.64090  0.60800  Biso   1.000  C
  C431     1.0000 0.85910  0.60800  0.47710  Biso   1.000  C
  C432     1.0000 0.14090  0.60800  0.52290  Biso   1.000  C
  C433     1.0000 0.47710  0.89200  0.35910  Biso   1.000  C
  C434     1.0000 0.60800  0.97710  0.35910  Biso   1.000  C
  C435     1.0000 0.52290  0.10800  0.35910  Biso   1.000  C
  C436     1.0000 0.39200  0.02290  0.35910  Biso   1.000  C
  C437     1.0000 0.47710  0.14090  0.39200  Biso   1.000  C
  C438     1.0000 0.47710  0.10800  0.64090  Biso   1.000  C
  C439     1.0000 0.47710  0.85910  0.60800  Biso   1.000  C
  C440     1.0000 0.35910  0.89200  0.52290  Biso   1.000  C
  C441     1.0000 0.52290  0.89200  0.64090  Biso   1.000  C
  C442     1.0000 0.64090  0.89200  0.47710  Biso   1.000  C
  C443     1.0000 0.35910  0.97710  0.39200  Biso   1.000  C
  C444     1.0000 0.39200  0.85910  0.47710  Biso   1.000  C
  C445     1.0000 0.60800  0.14090  0.47710  Biso   1.000  C
  C446     1.0000 0.35910  0.02290  0.60800  Biso   1.000  C
  C447     1.0000 0.60800  0.85910  0.52290  Biso   1.000  C
  C448     1.0000 0.64090  0.02290  0.39200  Biso   1.000  C
  C449     1.0000 0.64090  0.97710  0.60800  Biso   1.000  C
  C450     1.0000 0.39200  0.14090  0.52290  Biso   1.000  C
  C451     1.0000 0.39200  0.97710  0.64090  Biso   1.000  C
  C452     1.0000 0.60800  0.02290  0.64090  Biso   1.000  C
  C453     1.0000 0.52290  0.85910  0.39200  Biso   1.000  C
  C454     1.0000 0.52290  0.14090  0.60800  Biso   1.000  C
  C455     1.0000 0.35910  0.10800  0.47710  Biso   1.000  C
  C456     1.0000 0.64090  0.10800  0.52290  Biso   1.000  C
  C457     1.0000 0.47710  0.39200  0.85910  Biso   1.000  C
  C458     1.0000 0.60800  0.47710  0.85910  Biso   1.000  C
  C459     1.0000 0.52290  0.60800  0.85910  Biso   1.000  C
  C460     1.0000 0.39200  0.52290  0.85910  Biso   1.000  C
  C461     1.0000 0.47710  0.64090  0.89200  Biso   1.000  C
  C462     1.0000 0.47710  0.60800  0.14090  Biso   1.000  C
  C463     1.0000 0.47710  0.35910  0.10800  Biso   1.000  C
  C464     1.0000 0.35910  0.39200  0.02290  Biso   1.000  C
  C465     1.0000 0.52290  0.39200  0.14090  Biso   1.000  C
  C466     1.0000 0.64090  0.39200  0.97710  Biso   1.000  C
  C467     1.0000 0.35910  0.47710  0.89200  Biso   1.000  C
  C468     1.0000 0.39200  0.35910  0.97710  Biso   1.000  C
  C469     1.0000 0.60800  0.64090  0.97710  Biso   1.000  C
  C470     1.0000 0.35910  0.52290  0.10800  Biso   1.000  C
  C471     1.0000 0.60800  0.35910  0.02290  Biso   1.000  C
  C472     1.0000 0.64090  0.52290  0.89200  Biso   1.000  C
  C473     1.0000 0.64090  0.47710  0.10800  Biso   1.000  C
  C474     1.0000 0.39200  0.64090  0.02290  Biso   1.000  C
  C475     1.0000 0.39200  0.47710  0.14090  Biso   1.000  C
  C476     1.0000 0.60800  0.52290  0.14090  Biso   1.000  C
  C477     1.0000 0.52290  0.35910  0.89200  Biso   1.000  C
  C478     1.0000 0.52290  0.64090  0.10800  Biso   1.000  C
  C479     1.0000 0.35910  0.60800  0.97710  Biso   1.000  C
  C480     1.0000 0.64090  0.60800  0.02290  Biso   1.000  C
  C481     1.0000 0.00000  0.06870  0.06870  Biso   1.000  C
  C482     1.0000 0.93130  0.00000  0.06870  Biso   1.000  C
  C483     1.0000 0.00000  0.93130  0.06870  Biso   1.000  C
  C484     1.0000 0.06870  0.00000  0.06870  Biso   1.000  C
  C485     1.0000 0.00000  0.93130  0.93130  Biso   1.000  C
  C486     1.0000 0.00000  0.06870  0.93130  Biso   1.000  C
  C487     1.0000 0.06870  0.06870  0.00000  Biso   1.000  C
  C488     1.0000 0.93130  0.06870  0.00000  Biso   1.000  C
  C489     1.0000 0.93130  0.93130  0.00000  Biso   1.000  C
  C490     1.0000 0.06870  0.00000  0.93130  Biso   1.000  C
  C491     1.0000 0.93130  0.00000  0.93130  Biso   1.000  C
  C492     1.0000 0.06870  0.93130  0.00000  Biso   1.000  C
  C493     1.0000 0.00000  0.56870  0.56870  Biso   1.000  C
  C494     1.0000 0.93130  0.50000  0.56870  Biso   1.000  C
  C495     1.0000 0.00000  0.43130  0.56870  Biso   1.000  C
  C496     1.0000 0.06870  0.50000  0.56870  Biso   1.000  C
  C497     1.0000 0.00000  0.43130  0.43130  Biso   1.000  C
  C498     1.0000 0.00000  0.56870  0.43130  Biso   1.000  C
  C499     1.0000 0.06870  0.56870  0.50000  Biso   1.000  C
  C500     1.0000 0.93130  0.56870  0.50000  Biso   1.000  C
  C501     1.0000 0.93130  0.43130  0.50000  Biso   1.000  C
  C502     1.0000 0.06870  0.50000  0.43130  Biso   1.000  C
  C503     1.0000 0.93130  0.50000  0.43130  Biso   1.000  C
  C504     1.0000 0.06870  0.43130  0.50000  Biso   1.000  C
  C505     1.0000 0.50000  0.06870  0.56870  Biso   1.000  C
  C506     1.0000 0.43130  0.00000  0.56870  Biso   1.000  C
  C507     1.0000 0.50000  0.93130  0.56870  Biso   1.000  C
  C508     1.0000 0.56870  0.00000  0.56870  Biso   1.000  C
  C509     1.0000 0.50000  0.93130  0.43130  Biso   1.000  C
  C510     1.0000 0.50000  0.06870  0.43130  Biso   1.000  C
  C511     1.0000 0.56870  0.06870  0.50000  Biso   1.000  C
  C512     1.0000 0.43130  0.06870  0.50000  Biso   1.000  C
  C513     1.0000 0.43130  0.93130  0.50000  Biso   1.000  C
  C514     1.0000 0.56870  0.00000  0.43130  Biso   1.000  C
  C515     1.0000 0.43130  0.00000  0.43130  Biso   1.000  C
  C516     1.0000 0.56870  0.93130  0.50000  Biso   1.000  C
  C517     1.0000 0.50000  0.56870  0.06870  Biso   1.000  C
  C518     1.0000 0.43130  0.50000  0.06870  Biso   1.000  C
  C519     1.0000 0.50000  0.43130  0.06870  Biso   1.000  C
  C520     1.0000 0.56870  0.50000  0.06870  Biso   1.000  C
  C521     1.0000 0.50000  0.43130  0.93130  Biso   1.000  C
  C522     1.0000 0.50000  0.56870  0.93130  Biso   1.000  C
  C523     1.0000 0.56870  0.56870  0.00000  Biso   1.000  C
  C524     1.0000 0.43130  0.56870  0.00000  Biso   1.000  C
  C525     1.0000 0.43130  0.43130  0.00000  Biso   1.000  C
  C526     1.0000 0.56870  0.50000  0.93130  Biso   1.000  C
  C527     1.0000 0.43130  0.50000  0.93130  Biso   1.000  C
  C528     1.0000 0.56870  0.43130  0.00000  Biso   1.000  C
  C529     1.0000 0.00000  0.15600  0.15600  Biso   1.000  C
  C530     1.0000 0.84400  0.00000  0.15600  Biso   1.000  C
  C531     1.0000 0.00000  0.84400  0.15600  Biso   1.000  C
  C532     1.0000 0.15600  0.00000  0.15600  Biso   1.000  C
  C533     1.0000 0.00000  0.84400  0.84400  Biso   1.000  C
  C534     1.0000 0.00000  0.15600  0.84400  Biso   1.000  C
  C535     1.0000 0.15600  0.15600  0.00000  Biso   1.000  C
  C536     1.0000 0.84400  0.15600  0.00000  Biso   1.000  C
  C537     1.0000 0.84400  0.84400  0.00000  Biso   1.000  C
  C538     1.0000 0.15600  0.00000  0.84400  Biso   1.000  C
  C539     1.0000 0.84400  0.00000  0.84400  Biso   1.000  C
  C540     1.0000 0.15600  0.84400  0.00000  Biso   1.000  C
  C541     1.0000 0.00000  0.65600  0.65600  Biso   1.000  C
  C542     1.0000 0.84400  0.50000  0.65600  Biso   1.000  C
  C543     1.0000 0.00000  0.34400  0.65600  Biso   1.000  C
  C544     1.0000 0.15600  0.50000  0.65600  Biso   1.000  C
  C545     1.0000 0.00000  0.34400  0.34400  Biso   1.000  C
  C546     1.0000 0.00000  0.65600  0.34400  Biso   1.000  C
  C547     1.0000 0.15600  0.65600  0.50000  Biso   1.000  C
  C548     1.0000 0.84400  0.65600  0.50000  Biso   1.000  C
  C549     1.0000 0.84400  0.34400  0.50000  Biso   1.000  C
  C550     1.0000 0.15600  0.50000  0.34400  Biso   1.000  C
  C551     1.0000 0.84400  0.50000  0.34400  Biso   1.000  C
  C552     1.0000 0.15600  0.34400  0.50000  Biso   1.000  C
  C553     1.0000 0.50000  0.15600  0.65600  Biso   1.000  C
  C554     1.0000 0.34400  0.00000  0.65600  Biso   1.000  C
  C555     1.0000 0.50000  0.84400  0.65600  Biso   1.000  C
  C556     1.0000 0.65600  0.00000  0.65600  Biso   1.000  C
  C557     1.0000 0.50000  0.84400  0.34400  Biso   1.000  C
  C558     1.0000 0.50000  0.15600  0.34400  Biso   1.000  C
  C559     1.0000 0.65600  0.15600  0.50000  Biso   1.000  C
  C560     1.0000 0.34400  0.15600  0.50000  Biso   1.000  C
  C561     1.0000 0.34400  0.84400  0.50000  Biso   1.000  C
  C562     1.0000 0.65600  0.00000  0.34400  Biso   1.000  C
  C563     1.0000 0.34400  0.00000  0.34400  Biso   1.000  C
  C564     1.0000 0.65600  0.84400  0.50000  Biso   1.000  C
  C565     1.0000 0.50000  0.65600  0.15600  Biso   1.000  C
  C566     1.0000 0.34400  0.50000  0.15600  Biso   1.000  C
  C567     1.0000 0.50000  0.34400  0.15600  Biso   1.000  C
  C568     1.0000 0.65600  0.50000  0.15600  Biso   1.000  C
  C569     1.0000 0.50000  0.34400  0.84400  Biso   1.000  C
  C570     1.0000 0.50000  0.65600  0.84400  Biso   1.000  C
  C571     1.0000 0.65600  0.65600  0.00000  Biso   1.000  C
  C572     1.0000 0.34400  0.65600  0.00000  Biso   1.000  C
  C573     1.0000 0.34400  0.34400  0.00000  Biso   1.000  C
  C574     1.0000 0.65600  0.50000  0.84400  Biso   1.000  C
  C575     1.0000 0.34400  0.50000  0.84400  Biso   1.000  C
  C576     1.0000 0.65600  0.34400  0.00000  Biso   1.000  C
  C577     1.0000 0.03050  0.09010  0.13170  Biso   1.000  C
  C578     1.0000 0.90990  0.03050  0.13170  Biso   1.000  C
  C579     1.0000 0.96950  0.90990  0.13170  Biso   1.000  C
  C580     1.0000 0.09010  0.96950  0.13170  Biso   1.000  C
  C581     1.0000 0.03050  0.86830  0.09010  Biso   1.000  C
  C582     1.0000 0.03050  0.90990  0.86830  Biso   1.000  C
  C583     1.0000 0.03050  0.13170  0.90990  Biso   1.000  C
  C584     1.0000 0.13170  0.09010  0.96950  Biso   1.000  C
  C585     1.0000 0.96950  0.09010  0.86830  Biso   1.000  C
  C586     1.0000 0.86830  0.09010  0.03050  Biso   1.000  C
  C587     1.0000 0.13170  0.03050  0.09010  Biso   1.000  C
  C588     1.0000 0.09010  0.13170  0.03050  Biso   1.000  C
  C589     1.0000 0.90990  0.86830  0.03050  Biso   1.000  C
  C590     1.0000 0.13170  0.96950  0.90990  Biso   1.000  C
  C591     1.0000 0.90990  0.13170  0.96950  Biso   1.000  C
  C592     1.0000 0.86830  0.96950  0.09010  Biso   1.000  C
  C593     1.0000 0.86830  0.03050  0.90990  Biso   1.000  C
  C594     1.0000 0.09010  0.86830  0.96950  Biso   1.000  C
  C595     1.0000 0.09010  0.03050  0.86830  Biso   1.000  C
  C596     1.0000 0.90990  0.96950  0.86830  Biso   1.000  C
  C597     1.0000 0.96950  0.13170  0.09010  Biso   1.000  C
  C598     1.0000 0.96950  0.86830  0.90990  Biso   1.000  C
  C599     1.0000 0.13170  0.90990  0.03050  Biso   1.000  C
  C600     1.0000 0.86830  0.90990  0.96950  Biso   1.000  C
  C601     1.0000 0.03050  0.59010  0.63170  Biso   1.000  C
  C602     1.0000 0.90990  0.53050  0.63170  Biso   1.000  C
  C603     1.0000 0.96950  0.40990  0.63170  Biso   1.000  C
  C604     1.0000 0.09010  0.46950  0.63170  Biso   1.000  C
  C605     1.0000 0.03050  0.36830  0.59010  Biso   1.000  C
  C606     1.0000 0.03050  0.40990  0.36830  Biso   1.000  C
  C607     1.0000 0.03050  0.63170  0.40990  Biso   1.000  C
  C608     1.0000 0.13170  0.59010  0.46950  Biso   1.000  C
  C609     1.0000 0.96950  0.59010  0.36830  Biso   1.000  C
  C610     1.0000 0.86830  0.59010  0.53050  Biso   1.000  C
  C611     1.0000 0.13170  0.53050  0.59010  Biso   1.000  C
  C612     1.0000 0.09010  0.63170  0.53050  Biso   1.000  C
  C613     1.0000 0.90990  0.36830  0.53050  Biso   1.000  C
  C614     1.0000 0.13170  0.46950  0.40990  Biso   1.000  C
  C615     1.0000 0.90990  0.63170  0.46950  Biso   1.000  C
  C616     1.0000 0.86830  0.46950  0.59010  Biso   1.000  C
  C617     1.0000 0.86830  0.53050  0.40990  Biso   1.000  C
  C618     1.0000 0.09010  0.36830  0.46950  Biso   1.000  C
  C619     1.0000 0.09010  0.53050  0.36830  Biso   1.000  C
  C620     1.0000 0.90990  0.46950  0.36830  Biso   1.000  C
  C621     1.0000 0.96950  0.63170  0.59010  Biso   1.000  C
  C622     1.0000 0.96950  0.36830  0.40990  Biso   1.000  C
  C623     1.0000 0.13170  0.40990  0.53050  Biso   1.000  C
  C624     1.0000 0.86830  0.40990  0.46950  Biso   1.000  C
  C625     1.0000 0.53050  0.09010  0.63170  Biso   1.000  C
  C626     1.0000 0.40990  0.03050  0.63170  Biso   1.000  C
  C627     1.0000 0.46950  0.90990  0.63170  Biso   1.000  C
  C628     1.0000 0.59010  0.96950  0.63170  Biso   1.000  C
  C629     1.0000 0.53050  0.86830  0.59010  Biso   1.000  C
  C630     1.0000 0.53050  0.90990  0.36830  Biso   1.000  C
  C631     1.0000 0.53050  0.13170  0.40990  Biso   1.000  C
  C632     1.0000 0.63170  0.09010  0.46950  Biso   1.000  C
  C633     1.0000 0.46950  0.09010  0.36830  Biso   1.000  C
  C634     1.0000 0.36830  0.09010  0.53050  Biso   1.000  C
  C635     1.0000 0.63170  0.03050  0.59010  Biso   1.000  C
  C636     1.0000 0.59010  0.13170  0.53050  Biso   1.000  C
  C637     1.0000 0.40990  0.86830  0.53050  Biso   1.000  C
  C638     1.0000 0.63170  0.96950  0.40990  Biso   1.000  C
  C639     1.0000 0.40990  0.13170  0.46950  Biso   1.000  C
  C640     1.0000 0.36830  0.96950  0.59010  Biso   1.000  C
  C641     1.0000 0.36830  0.03050  0.40990  Biso   1.000  C
  C642     1.0000 0.59010  0.86830  0.46950  Biso   1.000  C
  C643     1.0000 0.59010  0.03050  0.36830  Biso   1.000  C
  C644     1.0000 0.40990  0.96950  0.36830  Biso   1.000  C
  C645     1.0000 0.46950  0.13170  0.59010  Biso   1.000  C
  C646     1.0000 0.46950  0.86830  0.40990  Biso   1.000  C
  C647     1.0000 0.63170  0.90990  0.53050  Biso   1.000  C
  C648     1.0000 0.36830  0.90990  0.46950  Biso   1.000  C
  C649     1.0000 0.53050  0.59010  0.13170  Biso   1.000  C
  C650     1.0000 0.40990  0.53050  0.13170  Biso   1.000  C
  C651     1.0000 0.46950  0.40990  0.13170  Biso   1.000  C
  C652     1.0000 0.59010  0.46950  0.13170  Biso   1.000  C
  C653     1.0000 0.53050  0.36830  0.09010  Biso   1.000  C
  C654     1.0000 0.53050  0.40990  0.86830  Biso   1.000  C
  C655     1.0000 0.53050  0.63170  0.90990  Biso   1.000  C
  C656     1.0000 0.63170  0.59010  0.96950  Biso   1.000  C
  C657     1.0000 0.46950  0.59010  0.86830  Biso   1.000  C
  C658     1.0000 0.36830  0.59010  0.03050  Biso   1.000  C
  C659     1.0000 0.63170  0.53050  0.09010  Biso   1.000  C
  C660     1.0000 0.59010  0.63170  0.03050  Biso   1.000  C
  C661     1.0000 0.40990  0.36830  0.03050  Biso   1.000  C
  C662     1.0000 0.63170  0.46950  0.90990  Biso   1.000  C
  C663     1.0000 0.40990  0.63170  0.96950  Biso   1.000  C
  C664     1.0000 0.36830  0.46950  0.09010  Biso   1.000  C
  C665     1.0000 0.36830  0.53050  0.90990  Biso   1.000  C
  C666     1.0000 0.59010  0.36830  0.96950  Biso   1.000  C
  C667     1.0000 0.59010  0.53050  0.86830  Biso   1.000  C
  C668     1.0000 0.40990  0.46950  0.86830  Biso   1.000  C
  C669     1.0000 0.46950  0.63170  0.09010  Biso   1.000  C
  C670     1.0000 0.46950  0.36830  0.90990  Biso   1.000  C
  C671     1.0000 0.63170  0.40990  0.03050  Biso   1.000  C
  C672     1.0000 0.36830  0.40990  0.96950  Biso   1.000  C
  C673     1.0000 0.96950  0.90990  0.86830  Biso   1.000  C
  C674     1.0000 0.09010  0.96950  0.86830  Biso   1.000  C
  C675     1.0000 0.03050  0.09010  0.86830  Biso   1.000  C
  C676     1.0000 0.90990  0.03050  0.86830  Biso   1.000  C
  C677     1.0000 0.96950  0.13170  0.90990  Biso   1.000  C
  C678     1.0000 0.96950  0.09010  0.13170  Biso   1.000  C
  C679     1.0000 0.96950  0.86830  0.09010  Biso   1.000  C
  C680     1.0000 0.86830  0.90990  0.03050  Biso   1.000  C
  C681     1.0000 0.03050  0.90990  0.13170  Biso   1.000  C
  C682     1.0000 0.13170  0.90990  0.96950  Biso   1.000  C
  C683     1.0000 0.86830  0.96950  0.90990  Biso   1.000  C
  C684     1.0000 0.90990  0.86830  0.96950  Biso   1.000  C
  C685     1.0000 0.09010  0.13170  0.96950  Biso   1.000  C
  C686     1.0000 0.86830  0.03050  0.09010  Biso   1.000  C
  C687     1.0000 0.09010  0.86830  0.03050  Biso   1.000  C
  C688     1.0000 0.13170  0.03050  0.90990  Biso   1.000  C
  C689     1.0000 0.13170  0.96950  0.09010  Biso   1.000  C
  C690     1.0000 0.90990  0.13170  0.03050  Biso   1.000  C
  C691     1.0000 0.90990  0.96950  0.13170  Biso   1.000  C
  C692     1.0000 0.09010  0.03050  0.13170  Biso   1.000  C
  C693     1.0000 0.03050  0.86830  0.90990  Biso   1.000  C
  C694     1.0000 0.03050  0.13170  0.09010  Biso   1.000  C
  C695     1.0000 0.86830  0.09010  0.96950  Biso   1.000  C
  C696     1.0000 0.13170  0.09010  0.03050  Biso   1.000  C
  C697     1.0000 0.96950  0.40990  0.36830  Biso   1.000  C
  C698     1.0000 0.09010  0.46950  0.36830  Biso   1.000  C
  C699     1.0000 0.03050  0.59010  0.36830  Biso   1.000  C
  C700     1.0000 0.90990  0.53050  0.36830  Biso   1.000  C
  C701     1.0000 0.96950  0.63170  0.40990  Biso   1.000  C
  C702     1.0000 0.96950  0.59010  0.63170  Biso   1.000  C
  C703     1.0000 0.96950  0.36830  0.59010  Biso   1.000  C
  C704     1.0000 0.86830  0.40990  0.53050  Biso   1.000  C
  C705     1.0000 0.03050  0.40990  0.63170  Biso   1.000  C
  C706     1.0000 0.13170  0.40990  0.46950  Biso   1.000  C
  C707     1.0000 0.86830  0.46950  0.40990  Biso   1.000  C
  C708     1.0000 0.90990  0.36830  0.46950  Biso   1.000  C
  C709     1.0000 0.09010  0.63170  0.46950  Biso   1.000  C
  C710     1.0000 0.86830  0.53050  0.59010  Biso   1.000  C
  C711     1.0000 0.09010  0.36830  0.53050  Biso   1.000  C
  C712     1.0000 0.13170  0.53050  0.40990  Biso   1.000  C
  C713     1.0000 0.13170  0.46950  0.59010  Biso   1.000  C
  C714     1.0000 0.90990  0.63170  0.53050  Biso   1.000  C
  C715     1.0000 0.90990  0.46950  0.63170  Biso   1.000  C
  C716     1.0000 0.09010  0.53050  0.63170  Biso   1.000  C
  C717     1.0000 0.03050  0.36830  0.40990  Biso   1.000  C
  C718     1.0000 0.03050  0.63170  0.59010  Biso   1.000  C
  C719     1.0000 0.86830  0.59010  0.46950  Biso   1.000  C
  C720     1.0000 0.13170  0.59010  0.53050  Biso   1.000  C
  C721     1.0000 0.46950  0.90990  0.36830  Biso   1.000  C
  C722     1.0000 0.59010  0.96950  0.36830  Biso   1.000  C
  C723     1.0000 0.53050  0.09010  0.36830  Biso   1.000  C
  C724     1.0000 0.40990  0.03050  0.36830  Biso   1.000  C
  C725     1.0000 0.46950  0.13170  0.40990  Biso   1.000  C
  C726     1.0000 0.46950  0.09010  0.63170  Biso   1.000  C
  C727     1.0000 0.46950  0.86830  0.59010  Biso   1.000  C
  C728     1.0000 0.36830  0.90990  0.53050  Biso   1.000  C
  C729     1.0000 0.53050  0.90990  0.63170  Biso   1.000  C
  C730     1.0000 0.63170  0.90990  0.46950  Biso   1.000  C
  C731     1.0000 0.36830  0.96950  0.40990  Biso   1.000  C
  C732     1.0000 0.40990  0.86830  0.46950  Biso   1.000  C
  C733     1.0000 0.59010  0.13170  0.46950  Biso   1.000  C
  C734     1.0000 0.36830  0.03050  0.59010  Biso   1.000  C
  C735     1.0000 0.59010  0.86830  0.53050  Biso   1.000  C
  C736     1.0000 0.63170  0.03050  0.40990  Biso   1.000  C
  C737     1.0000 0.63170  0.96950  0.59010  Biso   1.000  C
  C738     1.0000 0.40990  0.13170  0.53050  Biso   1.000  C
  C739     1.0000 0.40990  0.96950  0.63170  Biso   1.000  C
  C740     1.0000 0.59010  0.03050  0.63170  Biso   1.000  C
  C741     1.0000 0.53050  0.86830  0.40990  Biso   1.000  C
  C742     1.0000 0.53050  0.13170  0.59010  Biso   1.000  C
  C743     1.0000 0.36830  0.09010  0.46950  Biso   1.000  C
  C744     1.0000 0.63170  0.09010  0.53050  Biso   1.000  C
  C745     1.0000 0.46950  0.40990  0.86830  Biso   1.000  C
  C746     1.0000 0.59010  0.46950  0.86830  Biso   1.000  C
  C747     1.0000 0.53050  0.59010  0.86830  Biso   1.000  C
  C748     1.0000 0.40990  0.53050  0.86830  Biso   1.000  C
  C749     1.0000 0.46950  0.63170  0.90990  Biso   1.000  C
  C750     1.0000 0.46950  0.59010  0.13170  Biso   1.000  C
  C751     1.0000 0.46950  0.36830  0.09010  Biso   1.000  C
  C752     1.0000 0.36830  0.40990  0.03050  Biso   1.000  C
  C753     1.0000 0.53050  0.40990  0.13170  Biso   1.000  C
  C754     1.0000 0.63170  0.40990  0.96950  Biso   1.000  C
  C755     1.0000 0.36830  0.46950  0.90990  Biso   1.000  C
  C756     1.0000 0.40990  0.36830  0.96950  Biso   1.000  C
  C757     1.0000 0.59010  0.63170  0.96950  Biso   1.000  C
  C758     1.0000 0.36830  0.53050  0.09010  Biso   1.000  C
  C759     1.0000 0.59010  0.36830  0.03050  Biso   1.000  C
  C760     1.0000 0.63170  0.53050  0.90990  Biso   1.000  C
  C761     1.0000 0.63170  0.46950  0.09010  Biso   1.000  C
  C762     1.0000 0.40990  0.63170  0.03050  Biso   1.000  C
  C763     1.0000 0.40990  0.46950  0.13170  Biso   1.000  C
  C764     1.0000 0.59010  0.53050  0.13170  Biso   1.000  C
  C765     1.0000 0.53050  0.36830  0.90990  Biso   1.000  C
  C766     1.0000 0.53050  0.63170  0.09010  Biso   1.000  C
  C767     1.0000 0.36830  0.59010  0.96950  Biso   1.000  C
  C768     1.0000 0.63170  0.59010  0.03050  Biso   1.000  C
  C769     1.0000 0.06030  0.06030  0.13320  Biso   1.000  C
  C770     1.0000 0.93970  0.06030  0.13320  Biso   1.000  C
  C771     1.0000 0.93970  0.93970  0.13320  Biso   1.000  C
  C772     1.0000 0.06030  0.93970  0.13320  Biso   1.000  C
  C773     1.0000 0.06030  0.86680  0.06030  Biso   1.000  C
  C774     1.0000 0.06030  0.93970  0.86680  Biso   1.000  C
  C775     1.0000 0.06030  0.13320  0.93970  Biso   1.000  C
  C776     1.0000 0.13320  0.06030  0.93970  Biso   1.000  C
  C777     1.0000 0.93970  0.06030  0.86680  Biso   1.000  C
  C778     1.0000 0.86680  0.06030  0.06030  Biso   1.000  C
  C779     1.0000 0.13320  0.06030  0.06030  Biso   1.000  C
  C780     1.0000 0.06030  0.13320  0.06030  Biso   1.000  C
  C781     1.0000 0.93970  0.86680  0.06030  Biso   1.000  C
  C782     1.0000 0.13320  0.93970  0.93970  Biso   1.000  C
  C783     1.0000 0.93970  0.13320  0.93970  Biso   1.000  C
  C784     1.0000 0.86680  0.93970  0.06030  Biso   1.000  C
  C785     1.0000 0.86680  0.06030  0.93970  Biso   1.000  C
  C786     1.0000 0.06030  0.86680  0.93970  Biso   1.000  C
  C787     1.0000 0.06030  0.06030  0.86680  Biso   1.000  C
  C788     1.0000 0.93970  0.93970  0.86680  Biso   1.000  C
  C789     1.0000 0.93970  0.13320  0.06030  Biso   1.000  C
  C790     1.0000 0.93970  0.86680  0.93970  Biso   1.000  C
  C791     1.0000 0.13320  0.93970  0.06030  Biso   1.000  C
  C792     1.0000 0.86680  0.93970  0.93970  Biso   1.000  C
  C793     1.0000 0.06030  0.56030  0.63320  Biso   1.000  C
  C794     1.0000 0.93970  0.56030  0.63320  Biso   1.000  C
  C795     1.0000 0.93970  0.43970  0.63320  Biso   1.000  C
  C796     1.0000 0.06030  0.43970  0.63320  Biso   1.000  C
  C797     1.0000 0.06030  0.36680  0.56030  Biso   1.000  C
  C798     1.0000 0.06030  0.43970  0.36680  Biso   1.000  C
  C799     1.0000 0.06030  0.63320  0.43970  Biso   1.000  C
  C800     1.0000 0.13320  0.56030  0.43970  Biso   1.000  C
  C801     1.0000 0.93970  0.56030  0.36680  Biso   1.000  C
  C802     1.0000 0.86680  0.56030  0.56030  Biso   1.000  C
  C803     1.0000 0.13320  0.56030  0.56030  Biso   1.000  C
  C804     1.0000 0.06030  0.63320  0.56030  Biso   1.000  C
  C805     1.0000 0.93970  0.36680  0.56030  Biso   1.000  C
  C806     1.0000 0.13320  0.43970  0.43970  Biso   1.000  C
  C807     1.0000 0.93970  0.63320  0.43970  Biso   1.000  C
  C808     1.0000 0.86680  0.43970  0.56030  Biso   1.000  C
  C809     1.0000 0.86680  0.56030  0.43970  Biso   1.000  C
  C810     1.0000 0.06030  0.36680  0.43970  Biso   1.000  C
  C811     1.0000 0.06030  0.56030  0.36680  Biso   1.000  C
  C812     1.0000 0.93970  0.43970  0.36680  Biso   1.000  C
  C813     1.0000 0.93970  0.63320  0.56030  Biso   1.000  C
  C814     1.0000 0.93970  0.36680  0.43970  Biso   1.000  C
  C815     1.0000 0.13320  0.43970  0.56030  Biso   1.000  C
  C816     1.0000 0.86680  0.43970  0.43970  Biso   1.000  C
  C817     1.0000 0.56030  0.06030  0.63320  Biso   1.000  C
  C818     1.0000 0.43970  0.06030  0.63320  Biso   1.000  C
  C819     1.0000 0.43970  0.93970  0.63320  Biso   1.000  C
  C820     1.0000 0.56030  0.93970  0.63320  Biso   1.000  C
  C821     1.0000 0.56030  0.86680  0.56030  Biso   1.000  C
  C822     1.0000 0.56030  0.93970  0.36680  Biso   1.000  C
  C823     1.0000 0.56030  0.13320  0.43970  Biso   1.000  C
  C824     1.0000 0.63320  0.06030  0.43970  Biso   1.000  C
  C825     1.0000 0.43970  0.06030  0.36680  Biso   1.000  C
  C826     1.0000 0.36680  0.06030  0.56030  Biso   1.000  C
  C827     1.0000 0.63320  0.06030  0.56030  Biso   1.000  C
  C828     1.0000 0.56030  0.13320  0.56030  Biso   1.000  C
  C829     1.0000 0.43970  0.86680  0.56030  Biso   1.000  C
  C830     1.0000 0.63320  0.93970  0.43970  Biso   1.000  C
  C831     1.0000 0.43970  0.13320  0.43970  Biso   1.000  C
  C832     1.0000 0.36680  0.93970  0.56030  Biso   1.000  C
  C833     1.0000 0.36680  0.06030  0.43970  Biso   1.000  C
  C834     1.0000 0.56030  0.86680  0.43970  Biso   1.000  C
  C835     1.0000 0.56030  0.06030  0.36680  Biso   1.000  C
  C836     1.0000 0.43970  0.93970  0.36680  Biso   1.000  C
  C837     1.0000 0.43970  0.13320  0.56030  Biso   1.000  C
  C838     1.0000 0.43970  0.86680  0.43970  Biso   1.000  C
  C839     1.0000 0.63320  0.93970  0.56030  Biso   1.000  C
  C840     1.0000 0.36680  0.93970  0.43970  Biso   1.000  C
  C841     1.0000 0.56030  0.56030  0.13320  Biso   1.000  C
  C842     1.0000 0.43970  0.56030  0.13320  Biso   1.000  C
  C843     1.0000 0.43970  0.43970  0.13320  Biso   1.000  C
  C844     1.0000 0.56030  0.43970  0.13320  Biso   1.000  C
  C845     1.0000 0.56030  0.36680  0.06030  Biso   1.000  C
  C846     1.0000 0.56030  0.43970  0.86680  Biso   1.000  C
  C847     1.0000 0.56030  0.63320  0.93970  Biso   1.000  C
  C848     1.0000 0.63320  0.56030  0.93970  Biso   1.000  C
  C849     1.0000 0.43970  0.56030  0.86680  Biso   1.000  C
  C850     1.0000 0.36680  0.56030  0.06030  Biso   1.000  C
  C851     1.0000 0.63320  0.56030  0.06030  Biso   1.000  C
  C852     1.0000 0.56030  0.63320  0.06030  Biso   1.000  C
  C853     1.0000 0.43970  0.36680  0.06030  Biso   1.000  C
  C854     1.0000 0.63320  0.43970  0.93970  Biso   1.000  C
  C855     1.0000 0.43970  0.63320  0.93970  Biso   1.000  C
  C856     1.0000 0.36680  0.43970  0.06030  Biso   1.000  C
  C857     1.0000 0.36680  0.56030  0.93970  Biso   1.000  C
  C858     1.0000 0.56030  0.36680  0.93970  Biso   1.000  C
  C859     1.0000 0.56030  0.56030  0.86680  Biso   1.000  C
  C860     1.0000 0.43970  0.43970  0.86680  Biso   1.000  C
  C861     1.0000 0.43970  0.63320  0.06030  Biso   1.000  C
  C862     1.0000 0.43970  0.36680  0.93970  Biso   1.000  C
  C863     1.0000 0.63320  0.43970  0.06030  Biso   1.000  C
  C864     1.0000 0.36680  0.43970  0.93970  Biso   1.000  C
  C865     1.0000 0.05510  0.05510  0.11890  Biso   1.000  C
  C866     1.0000 0.94490  0.05510  0.11890  Biso   1.000  C
  C867     1.0000 0.94490  0.94490  0.11890  Biso   1.000  C
  C868     1.0000 0.05510  0.94490  0.11890  Biso   1.000  C
  C869     1.0000 0.05510  0.88110  0.05510  Biso   1.000  C
  C870     1.0000 0.05510  0.94490  0.88110  Biso   1.000  C
  C871     1.0000 0.05510  0.11890  0.94490  Biso   1.000  C
  C872     1.0000 0.11890  0.05510  0.94490  Biso   1.000  C
  C873     1.0000 0.94490  0.05510  0.88110  Biso   1.000  C
  C874     1.0000 0.88110  0.05510  0.05510  Biso   1.000  C
  C875     1.0000 0.11890  0.05510  0.05510  Biso   1.000  C
  C876     1.0000 0.05510  0.11890  0.05510  Biso   1.000  C
  C877     1.0000 0.94490  0.88110  0.05510  Biso   1.000  C
  C878     1.0000 0.11890  0.94490  0.94490  Biso   1.000  C
  C879     1.0000 0.94490  0.11890  0.94490  Biso   1.000  C
  C880     1.0000 0.88110  0.94490  0.05510  Biso   1.000  C
  C881     1.0000 0.88110  0.05510  0.94490  Biso   1.000  C
  C882     1.0000 0.05510  0.88110  0.94490  Biso   1.000  C
  C883     1.0000 0.05510  0.05510  0.88110  Biso   1.000  C
  C884     1.0000 0.94490  0.94490  0.88110  Biso   1.000  C
  C885     1.0000 0.94490  0.11890  0.05510  Biso   1.000  C
  C886     1.0000 0.94490  0.88110  0.94490  Biso   1.000  C
  C887     1.0000 0.11890  0.94490  0.05510  Biso   1.000  C
  C888     1.0000 0.88110  0.94490  0.94490  Biso   1.000  C
  C889     1.0000 0.05510  0.55510  0.61890  Biso   1.000  C
  C890     1.0000 0.94490  0.55510  0.61890  Biso   1.000  C
  C891     1.0000 0.94490  0.44490  0.61890  Biso   1.000  C
  C892     1.0000 0.05510  0.44490  0.61890  Biso   1.000  C
  C893     1.0000 0.05510  0.38110  0.55510  Biso   1.000  C
  C894     1.0000 0.05510  0.44490  0.38110  Biso   1.000  C
  C895     1.0000 0.05510  0.61890  0.44490  Biso   1.000  C
  C896     1.0000 0.11890  0.55510  0.44490  Biso   1.000  C
  C897     1.0000 0.94490  0.55510  0.38110  Biso   1.000  C
  C898     1.0000 0.88110  0.55510  0.55510  Biso   1.000  C
  C899     1.0000 0.11890  0.55510  0.55510  Biso   1.000  C
  C900     1.0000 0.05510  0.61890  0.55510  Biso   1.000  C
  C901     1.0000 0.94490  0.38110  0.55510  Biso   1.000  C
  C902     1.0000 0.11890  0.44490  0.44490  Biso   1.000  C
  C903     1.0000 0.94490  0.61890  0.44490  Biso   1.000  C
  C904     1.0000 0.88110  0.44490  0.55510  Biso   1.000  C
  C905     1.0000 0.88110  0.55510  0.44490  Biso   1.000  C
  C906     1.0000 0.05510  0.38110  0.44490  Biso   1.000  C
  C907     1.0000 0.05510  0.55510  0.38110  Biso   1.000  C
  C908     1.0000 0.94490  0.44490  0.38110  Biso   1.000  C
  C909     1.0000 0.94490  0.61890  0.55510  Biso   1.000  C
  C910     1.0000 0.94490  0.38110  0.44490  Biso   1.000  C
  C911     1.0000 0.11890  0.44490  0.55510  Biso   1.000  C
  C912     1.0000 0.88110  0.44490  0.44490  Biso   1.000  C
  C913     1.0000 0.55510  0.05510  0.61890  Biso   1.000  C
  C914     1.0000 0.44490  0.05510  0.61890  Biso   1.000  C
  C915     1.0000 0.44490  0.94490  0.61890  Biso   1.000  C
  C916     1.0000 0.55510  0.94490  0.61890  Biso   1.000  C
  C917     1.0000 0.55510  0.88110  0.55510  Biso   1.000  C
  C918     1.0000 0.55510  0.94490  0.38110  Biso   1.000  C
  C919     1.0000 0.55510  0.11890  0.44490  Biso   1.000  C
  C920     1.0000 0.61890  0.05510  0.44490  Biso   1.000  C
  C921     1.0000 0.44490  0.05510  0.38110  Biso   1.000  C
  C922     1.0000 0.38110  0.05510  0.55510  Biso   1.000  C
  C923     1.0000 0.61890  0.05510  0.55510  Biso   1.000  C
  C924     1.0000 0.55510  0.11890  0.55510  Biso   1.000  C
  C925     1.0000 0.44490  0.88110  0.55510  Biso   1.000  C
  C926     1.0000 0.61890  0.94490  0.44490  Biso   1.000  C
  C927     1.0000 0.44490  0.11890  0.44490  Biso   1.000  C
  C928     1.0000 0.38110  0.94490  0.55510  Biso   1.000  C
  C929     1.0000 0.38110  0.05510  0.44490  Biso   1.000  C
  C930     1.0000 0.55510  0.88110  0.44490  Biso   1.000  C
  C931     1.0000 0.55510  0.05510  0.38110  Biso   1.000  C
  C932     1.0000 0.44490  0.94490  0.38110  Biso   1.000  C
  C933     1.0000 0.44490  0.11890  0.55510  Biso   1.000  C
  C934     1.0000 0.44490  0.88110  0.44490  Biso   1.000  C
  C935     1.0000 0.61890  0.94490  0.55510  Biso   1.000  C
  C936     1.0000 0.38110  0.94490  0.44490  Biso   1.000  C
  C937     1.0000 0.55510  0.55510  0.11890  Biso   1.000  C
  C938     1.0000 0.44490  0.55510  0.11890  Biso   1.000  C
  C939     1.0000 0.44490  0.44490  0.11890  Biso   1.000  C
  C940     1.0000 0.55510  0.44490  0.11890  Biso   1.000  C
  C941     1.0000 0.55510  0.38110  0.05510  Biso   1.000  C
  C942     1.0000 0.55510  0.44490  0.88110  Biso   1.000  C
  C943     1.0000 0.55510  0.61890  0.94490  Biso   1.000  C
  C944     1.0000 0.61890  0.55510  0.94490  Biso   1.000  C
  C945     1.0000 0.44490  0.55510  0.88110  Biso   1.000  C
  C946     1.0000 0.38110  0.55510  0.05510  Biso   1.000  C
  C947     1.0000 0.61890  0.55510  0.05510  Biso   1.000  C
  C948     1.0000 0.55510  0.61890  0.05510  Biso   1.000  C
  C949     1.0000 0.44490  0.38110  0.05510  Biso   1.000  C
  C950     1.0000 0.61890  0.44490  0.94490  Biso   1.000  C
  C951     1.0000 0.44490  0.61890  0.94490  Biso   1.000  C
  C952     1.0000 0.38110  0.44490  0.05510  Biso   1.000  C
  C953     1.0000 0.38110  0.55510  0.94490  Biso   1.000  C
  C954     1.0000 0.55510  0.38110  0.94490  Biso   1.000  C
  C955     1.0000 0.55510  0.55510  0.88110  Biso   1.000  C
  C956     1.0000 0.44490  0.44490  0.88110  Biso   1.000  C
  C957     1.0000 0.44490  0.61890  0.05510  Biso   1.000  C
  C958     1.0000 0.44490  0.38110  0.94490  Biso   1.000  C
  C959     1.0000 0.61890  0.44490  0.05510  Biso   1.000  C
  C960     1.0000 0.38110  0.44490  0.94490  Biso   1.000  C
  C961     1.0000 0.04956  0.07829  0.14310  Biso   1.000  C
  C962     1.0000 0.92171  0.04956  0.14310  Biso   1.000  C
  C963     1.0000 0.95044  0.92171  0.14310  Biso   1.000  C
  C964     1.0000 0.07829  0.95044  0.14310  Biso   1.000  C
  C965     1.0000 0.04956  0.85690  0.07829  Biso   1.000  C
  C966     1.0000 0.04956  0.92171  0.85690  Biso   1.000  C
  C967     1.0000 0.04956  0.14310  0.92171  Biso   1.000  C
  C968     1.0000 0.14310  0.07829  0.95044  Biso   1.000  C
  C969     1.0000 0.95044  0.07829  0.85690  Biso   1.000  C
  C970     1.0000 0.85690  0.07829  0.04956  Biso   1.000  C
  C971     1.0000 0.14310  0.04956  0.07829  Biso   1.000  C
  C972     1.0000 0.07829  0.14310  0.04956  Biso   1.000  C
  C973     1.0000 0.92171  0.85690  0.04956  Biso   1.000  C
  C974     1.0000 0.14310  0.95044  0.92171  Biso   1.000  C
  C975     1.0000 0.92171  0.14310  0.95044  Biso   1.000  C
  C976     1.0000 0.85690  0.95044  0.07829  Biso   1.000  C
  C977     1.0000 0.85690  0.04956  0.92171  Biso   1.000  C
  C978     1.0000 0.07829  0.85690  0.95044  Biso   1.000  C
  C979     1.0000 0.07829  0.04956  0.85690  Biso   1.000  C
  C980     1.0000 0.92171  0.95044  0.85690  Biso   1.000  C
  C981     1.0000 0.95044  0.14310  0.07829  Biso   1.000  C
  C982     1.0000 0.95044  0.85690  0.92171  Biso   1.000  C
  C983     1.0000 0.14310  0.92171  0.04956  Biso   1.000  C
  C984     1.0000 0.85690  0.92171  0.95044  Biso   1.000  C
  C985     1.0000 0.04956  0.57829  0.64310  Biso   1.000  C
  C986     1.0000 0.92171  0.54956  0.64310  Biso   1.000  C
  C987     1.0000 0.95044  0.42171  0.64310  Biso   1.000  C
  C988     1.0000 0.07829  0.45044  0.64310  Biso   1.000  C
  C989     1.0000 0.04956  0.35690  0.57829  Biso   1.000  C
  C990     1.0000 0.04956  0.42171  0.35690  Biso   1.000  C
  C991     1.0000 0.04956  0.64310  0.42171  Biso   1.000  C
  C992     1.0000 0.14310  0.57829  0.45044  Biso   1.000  C
  C993     1.0000 0.95044  0.57829  0.35690  Biso   1.000  C
  C994     1.0000 0.85690  0.57829  0.54956  Biso   1.000  C
  C995     1.0000 0.14310  0.54956  0.57829  Biso   1.000  C
  C996     1.0000 0.07829  0.64310  0.54956  Biso   1.000  C
  C997     1.0000 0.92171  0.35690  0.54956  Biso   1.000  C
  C998     1.0000 0.14310  0.45044  0.42171  Biso   1.000  C
  C999     1.0000 0.92171  0.64310  0.45044  Biso   1.000  C
  C1000    1.0000 0.85690  0.45044  0.57829  Biso   1.000  C
  C1001    1.0000 0.85690  0.54956  0.42171  Biso   1.000  C
  C1002    1.0000 0.07829  0.35690  0.45044  Biso   1.000  C
  C1003    1.0000 0.07829  0.54956  0.35690  Biso   1.000  C
  C1004    1.0000 0.92171  0.45044  0.35690  Biso   1.000  C
  C1005    1.0000 0.95044  0.64310  0.57829  Biso   1.000  C
  C1006    1.0000 0.95044  0.35690  0.42171  Biso   1.000  C
  C1007    1.0000 0.14310  0.42171  0.54956  Biso   1.000  C
  C1008    1.0000 0.85690  0.42171  0.45044  Biso   1.000  C
  C1009    1.0000 0.54956  0.07829  0.64310  Biso   1.000  C
  C1010    1.0000 0.42171  0.04956  0.64310  Biso   1.000  C
  C1011    1.0000 0.45044  0.92171  0.64310  Biso   1.000  C
  C1012    1.0000 0.57829  0.95044  0.64310  Biso   1.000  C
  C1013    1.0000 0.54956  0.85690  0.57829  Biso   1.000  C
  C1014    1.0000 0.54956  0.92171  0.35690  Biso   1.000  C
  C1015    1.0000 0.54956  0.14310  0.42171  Biso   1.000  C
  C1016    1.0000 0.64310  0.07829  0.45044  Biso   1.000  C
  C1017    1.0000 0.45044  0.07829  0.35690  Biso   1.000  C
  C1018    1.0000 0.35690  0.07829  0.54956  Biso   1.000  C
  C1019    1.0000 0.64310  0.04956  0.57829  Biso   1.000  C
  C1020    1.0000 0.57829  0.14310  0.54956  Biso   1.000  C
  C1021    1.0000 0.42171  0.85690  0.54956  Biso   1.000  C
  C1022    1.0000 0.64310  0.95044  0.42171  Biso   1.000  C
  C1023    1.0000 0.42171  0.14310  0.45044  Biso   1.000  C
  C1024    1.0000 0.35690  0.95044  0.57829  Biso   1.000  C
  C1025    1.0000 0.35690  0.04956  0.42171  Biso   1.000  C
  C1026    1.0000 0.57829  0.85690  0.45044  Biso   1.000  C
  C1027    1.0000 0.57829  0.04956  0.35690  Biso   1.000  C
  C1028    1.0000 0.42171  0.95044  0.35690  Biso   1.000  C
  C1029    1.0000 0.45044  0.14310  0.57829  Biso   1.000  C
  C1030    1.0000 0.45044  0.85690  0.42171  Biso   1.000  C
  C1031    1.0000 0.64310  0.92171  0.54956  Biso   1.000  C
  C1032    1.0000 0.35690  0.92171  0.45044  Biso   1.000  C
  C1033    1.0000 0.54956  0.57829  0.14310  Biso   1.000  C
  C1034    1.0000 0.42171  0.54956  0.14310  Biso   1.000  C
  C1035    1.0000 0.45044  0.42171  0.14310  Biso   1.000  C
  C1036    1.0000 0.57829  0.45044  0.14310  Biso   1.000  C
  C1037    1.0000 0.54956  0.35690  0.07829  Biso   1.000  C
  C1038    1.0000 0.54956  0.42171  0.85690  Biso   1.000  C
  C1039    1.0000 0.54956  0.64310  0.92171  Biso   1.000  C
  C1040    1.0000 0.64310  0.57829  0.95044  Biso   1.000  C
  C1041    1.0000 0.45044  0.57829  0.85690  Biso   1.000  C
  C1042    1.0000 0.35690  0.57829  0.04956  Biso   1.000  C
  C1043    1.0000 0.64310  0.54956  0.07829  Biso   1.000  C
  C1044    1.0000 0.57829  0.64310  0.04956  Biso   1.000  C
  C1045    1.0000 0.42171  0.35690  0.04956  Biso   1.000  C
  C1046    1.0000 0.64310  0.45044  0.92171  Biso   1.000  C
  C1047    1.0000 0.42171  0.64310  0.95044  Biso   1.000  C
  C1048    1.0000 0.35690  0.45044  0.07829  Biso   1.000  C
  C1049    1.0000 0.35690  0.54956  0.92171  Biso   1.000  C
  C1050    1.0000 0.57829  0.35690  0.95044  Biso   1.000  C
  C1051    1.0000 0.57829  0.54956  0.85690  Biso   1.000  C
  C1052    1.0000 0.42171  0.45044  0.85690  Biso   1.000  C
  C1053    1.0000 0.45044  0.64310  0.07829  Biso   1.000  C
  C1054    1.0000 0.45044  0.35690  0.92171  Biso   1.000  C
  C1055    1.0000 0.64310  0.42171  0.04956  Biso   1.000  C
  C1056    1.0000 0.35690  0.42171  0.95044  Biso   1.000  C
  C1057    1.0000 0.95044  0.92171  0.85690  Biso   1.000  C
  C1058    1.0000 0.07829  0.95044  0.85690  Biso   1.000  C
  C1059    1.0000 0.04956  0.07829  0.85690  Biso   1.000  C
  C1060    1.0000 0.92171  0.04956  0.85690  Biso   1.000  C
  C1061    1.0000 0.95044  0.14310  0.92171  Biso   1.000  C
  C1062    1.0000 0.95044  0.07829  0.14310  Biso   1.000  C
  C1063    1.0000 0.95044  0.85690  0.07829  Biso   1.000  C
  C1064    1.0000 0.85690  0.92171  0.04956  Biso   1.000  C
  C1065    1.0000 0.04956  0.92171  0.14310  Biso   1.000  C
  C1066    1.0000 0.14310  0.92171  0.95044  Biso   1.000  C
  C1067    1.0000 0.85690  0.95044  0.92171  Biso   1.000  C
  C1068    1.0000 0.92171  0.85690  0.95044  Biso   1.000  C
  C1069    1.0000 0.07829  0.14310  0.95044  Biso   1.000  C
  C1070    1.0000 0.85690  0.04956  0.07829  Biso   1.000  C
  C1071    1.0000 0.07829  0.85690  0.04956  Biso   1.000  C
  C1072    1.0000 0.14310  0.04956  0.92171  Biso   1.000  C
  C1073    1.0000 0.14310  0.95044  0.07829  Biso   1.000  C
  C1074    1.0000 0.92171  0.14310  0.04956  Biso   1.000  C
  C1075    1.0000 0.92171  0.95044  0.14310  Biso   1.000  C
  C1076    1.0000 0.07829  0.04956  0.14310  Biso   1.000  C
  C1077    1.0000 0.04956  0.85690  0.92171  Biso   1.000  C
  C1078    1.0000 0.04956  0.14310  0.07829  Biso   1.000  C
  C1079    1.0000 0.85690  0.07829  0.95044  Biso   1.000  C
  C1080    1.0000 0.14310  0.07829  0.04956  Biso   1.000  C
  C1081    1.0000 0.95044  0.42171  0.35690  Biso   1.000  C
  C1082    1.0000 0.07829  0.45044  0.35690  Biso   1.000  C
  C1083    1.0000 0.04956  0.57829  0.35690  Biso   1.000  C
  C1084    1.0000 0.92171  0.54956  0.35690  Biso   1.000  C
  C1085    1.0000 0.95044  0.64310  0.42171  Biso   1.000  C
  C1086    1.0000 0.95044  0.57829  0.64310  Biso   1.000  C
  C1087    1.0000 0.95044  0.35690  0.57829  Biso   1.000  C
  C1088    1.0000 0.85690  0.42171  0.54956  Biso   1.000  C
  C1089    1.0000 0.04956  0.42171  0.64310  Biso   1.000  C
  C1090    1.0000 0.14310  0.42171  0.45044  Biso   1.000  C
  C1091    1.0000 0.85690  0.45044  0.42171  Biso   1.000  C
  C1092    1.0000 0.92171  0.35690  0.45044  Biso   1.000  C
  C1093    1.0000 0.07829  0.64310  0.45044  Biso   1.000  C
  C1094    1.0000 0.85690  0.54956  0.57829  Biso   1.000  C
  C1095    1.0000 0.07829  0.35690  0.54956  Biso   1.000  C
  C1096    1.0000 0.14310  0.54956  0.42171  Biso   1.000  C
  C1097    1.0000 0.14310  0.45044  0.57829  Biso   1.000  C
  C1098    1.0000 0.92171  0.64310  0.54956  Biso   1.000  C
  C1099    1.0000 0.92171  0.45044  0.64310  Biso   1.000  C
  C1100    1.0000 0.07829  0.54956  0.64310  Biso   1.000  C
  C1101    1.0000 0.04956  0.35690  0.42171  Biso   1.000  C
  C1102    1.0000 0.04956  0.64310  0.57829  Biso   1.000  C
  C1103    1.0000 0.85690  0.57829  0.45044  Biso   1.000  C
  C1104    1.0000 0.14310  0.57829  0.54956  Biso   1.000  C
  C1105    1.0000 0.45044  0.92171  0.35690  Biso   1.000  C
  C1106    1.0000 0.57829  0.95044  0.35690  Biso   1.000  C
  C1107    1.0000 0.54956  0.07829  0.35690  Biso   1.000  C
  C1108    1.0000 0.42171  0.04956  0.35690  Biso   1.000  C
  C1109    1.0000 0.45044  0.14310  0.42171  Biso   1.000  C
  C1110    1.0000 0.45044  0.07829  0.64310  Biso   1.000  C
  C1111    1.0000 0.45044  0.85690  0.57829  Biso   1.000  C
  C1112    1.0000 0.35690  0.92171  0.54956  Biso   1.000  C
  C1113    1.0000 0.54956  0.92171  0.64310  Biso   1.000  C
  C1114    1.0000 0.64310  0.92171  0.45044  Biso   1.000  C
  C1115    1.0000 0.35690  0.95044  0.42171  Biso   1.000  C
  C1116    1.0000 0.42171  0.85690  0.45044  Biso   1.000  C
  C1117    1.0000 0.57829  0.14310  0.45044  Biso   1.000  C
  C1118    1.0000 0.35690  0.04956  0.57829  Biso   1.000  C
  C1119    1.0000 0.57829  0.85690  0.54956  Biso   1.000  C
  C1120    1.0000 0.64310  0.04956  0.42171  Biso   1.000  C
  C1121    1.0000 0.64310  0.95044  0.57829  Biso   1.000  C
  C1122    1.0000 0.42171  0.14310  0.54956  Biso   1.000  C
  C1123    1.0000 0.42171  0.95044  0.64310  Biso   1.000  C
  C1124    1.0000 0.57829  0.04956  0.64310  Biso   1.000  C
  C1125    1.0000 0.54956  0.85690  0.42171  Biso   1.000  C
  C1126    1.0000 0.54956  0.14310  0.57829  Biso   1.000  C
  C1127    1.0000 0.35690  0.07829  0.45044  Biso   1.000  C
  C1128    1.0000 0.64310  0.07829  0.54956  Biso   1.000  C
  C1129    1.0000 0.45044  0.42171  0.85690  Biso   1.000  C
  C1130    1.0000 0.57829  0.45044  0.85690  Biso   1.000  C
  C1131    1.0000 0.54956  0.57829  0.85690  Biso   1.000  C
  C1132    1.0000 0.42171  0.54956  0.85690  Biso   1.000  C
  C1133    1.0000 0.45044  0.64310  0.92171  Biso   1.000  C
  C1134    1.0000 0.45044  0.57829  0.14310  Biso   1.000  C
  C1135    1.0000 0.45044  0.35690  0.07829  Biso   1.000  C
  C1136    1.0000 0.35690  0.42171  0.04956  Biso   1.000  C
  C1137    1.0000 0.54956  0.42171  0.14310  Biso   1.000  C
  C1138    1.0000 0.64310  0.42171  0.95044  Biso   1.000  C
  C1139    1.0000 0.35690  0.45044  0.92171  Biso   1.000  C
  C1140    1.0000 0.42171  0.35690  0.95044  Biso   1.000  C
  C1141    1.0000 0.57829  0.64310  0.95044  Biso   1.000  C
  C1142    1.0000 0.35690  0.54956  0.07829  Biso   1.000  C
  C1143    1.0000 0.57829  0.35690  0.04956  Biso   1.000  C
  C1144    1.0000 0.64310  0.54956  0.92171  Biso   1.000  C
  C1145    1.0000 0.64310  0.45044  0.07829  Biso   1.000  C
  C1146    1.0000 0.42171  0.64310  0.04956  Biso   1.000  C
  C1147    1.0000 0.42171  0.45044  0.14310  Biso   1.000  C
  C1148    1.0000 0.57829  0.54956  0.14310  Biso   1.000  C
  C1149    1.0000 0.54956  0.35690  0.92171  Biso   1.000  C
  C1150    1.0000 0.54956  0.64310  0.07829  Biso   1.000  C
  C1151    1.0000 0.35690  0.57829  0.95044  Biso   1.000  C
  C1152    1.0000 0.64310  0.57829  0.04956  Biso   1.000  C
  C1153    1.0000 0.05679  0.08556  0.16440  Biso   1.000  C
  C1154    1.0000 0.91444  0.05679  0.16440  Biso   1.000  C
  C1155    1.0000 0.94321  0.91444  0.16440  Biso   1.000  C
  C1156    1.0000 0.08556  0.94321  0.16440  Biso   1.000  C
  C1157    1.0000 0.05679  0.83560  0.08556  Biso   1.000  C
  C1158    1.0000 0.05679  0.91444  0.83560  Biso   1.000  C
  C1159    1.0000 0.05679  0.16440  0.91444  Biso   1.000  C
  C1160    1.0000 0.16440  0.08556  0.94321  Biso   1.000  C
  C1161    1.0000 0.94321  0.08556  0.83560  Biso   1.000  C
  C1162    1.0000 0.83560  0.08556  0.05679  Biso   1.000  C
  C1163    1.0000 0.16440  0.05679  0.08556  Biso   1.000  C
  C1164    1.0000 0.08556  0.16440  0.05679  Biso   1.000  C
  C1165    1.0000 0.91444  0.83560  0.05679  Biso   1.000  C
  C1166    1.0000 0.16440  0.94321  0.91444  Biso   1.000  C
  C1167    1.0000 0.91444  0.16440  0.94321  Biso   1.000  C
  C1168    1.0000 0.83560  0.94321  0.08556  Biso   1.000  C
  C1169    1.0000 0.83560  0.05679  0.91444  Biso   1.000  C
  C1170    1.0000 0.08556  0.83560  0.94321  Biso   1.000  C
  C1171    1.0000 0.08556  0.05679  0.83560  Biso   1.000  C
  C1172    1.0000 0.91444  0.94321  0.83560  Biso   1.000  C
  C1173    1.0000 0.94321  0.16440  0.08556  Biso   1.000  C
  C1174    1.0000 0.94321  0.83560  0.91444  Biso   1.000  C
  C1175    1.0000 0.16440  0.91444  0.05679  Biso   1.000  C
  C1176    1.0000 0.83560  0.91444  0.94321  Biso   1.000  C
  C1177    1.0000 0.05679  0.58556  0.66440  Biso   1.000  C
  C1178    1.0000 0.91444  0.55679  0.66440  Biso   1.000  C
  C1179    1.0000 0.94321  0.41444  0.66440  Biso   1.000  C
  C1180    1.0000 0.08556  0.44321  0.66440  Biso   1.000  C
  C1181    1.0000 0.05679  0.33560  0.58556  Biso   1.000  C
  C1182    1.0000 0.05679  0.41444  0.33560  Biso   1.000  C
  C1183    1.0000 0.05679  0.66440  0.41444  Biso   1.000  C
  C1184    1.0000 0.16440  0.58556  0.44321  Biso   1.000  C
  C1185    1.0000 0.94321  0.58556  0.33560  Biso   1.000  C
  C1186    1.0000 0.83560  0.58556  0.55679  Biso   1.000  C
  C1187    1.0000 0.16440  0.55679  0.58556  Biso   1.000  C
  C1188    1.0000 0.08556  0.66440  0.55679  Biso   1.000  C
  C1189    1.0000 0.91444  0.33560  0.55679  Biso   1.000  C
  C1190    1.0000 0.16440  0.44321  0.41444  Biso   1.000  C
  C1191    1.0000 0.91444  0.66440  0.44321  Biso   1.000  C
  C1192    1.0000 0.83560  0.44321  0.58556  Biso   1.000  C
  C1193    1.0000 0.83560  0.55679  0.41444  Biso   1.000  C
  C1194    1.0000 0.08556  0.33560  0.44321  Biso   1.000  C
  C1195    1.0000 0.08556  0.55679  0.33560  Biso   1.000  C
  C1196    1.0000 0.91444  0.44321  0.33560  Biso   1.000  C
  C1197    1.0000 0.94321  0.66440  0.58556  Biso   1.000  C
  C1198    1.0000 0.94321  0.33560  0.41444  Biso   1.000  C
  C1199    1.0000 0.16440  0.41444  0.55679  Biso   1.000  C
  C1200    1.0000 0.83560  0.41444  0.44321  Biso   1.000  C
  C1201    1.0000 0.55679  0.08556  0.66440  Biso   1.000  C
  C1202    1.0000 0.41444  0.05679  0.66440  Biso   1.000  C
  C1203    1.0000 0.44321  0.91444  0.66440  Biso   1.000  C
  C1204    1.0000 0.58556  0.94321  0.66440  Biso   1.000  C
  C1205    1.0000 0.55679  0.83560  0.58556  Biso   1.000  C
  C1206    1.0000 0.55679  0.91444  0.33560  Biso   1.000  C
  C1207    1.0000 0.55679  0.16440  0.41444  Biso   1.000  C
  C1208    1.0000 0.66440  0.08556  0.44321  Biso   1.000  C
  C1209    1.0000 0.44321  0.08556  0.33560  Biso   1.000  C
  C1210    1.0000 0.33560  0.08556  0.55679  Biso   1.000  C
  C1211    1.0000 0.66440  0.05679  0.58556  Biso   1.000  C
  C1212    1.0000 0.58556  0.16440  0.55679  Biso   1.000  C
  C1213    1.0000 0.41444  0.83560  0.55679  Biso   1.000  C
  C1214    1.0000 0.66440  0.94321  0.41444  Biso   1.000  C
  C1215    1.0000 0.41444  0.16440  0.44321  Biso   1.000  C
  C1216    1.0000 0.33560  0.94321  0.58556  Biso   1.000  C
  C1217    1.0000 0.33560  0.05679  0.41444  Biso   1.000  C
  C1218    1.0000 0.58556  0.83560  0.44321  Biso   1.000  C
  C1219    1.0000 0.58556  0.05679  0.33560  Biso   1.000  C
  C1220    1.0000 0.41444  0.94321  0.33560  Biso   1.000  C
  C1221    1.0000 0.44321  0.16440  0.58556  Biso   1.000  C
  C1222    1.0000 0.44321  0.83560  0.41444  Biso   1.000  C
  C1223    1.0000 0.66440  0.91444  0.55679  Biso   1.000  C
  C1224    1.0000 0.33560  0.91444  0.44321  Biso   1.000  C
  C1225    1.0000 0.55679  0.58556  0.16440  Biso   1.000  C
  C1226    1.0000 0.41444  0.55679  0.16440  Biso   1.000  C
  C1227    1.0000 0.44321  0.41444  0.16440  Biso   1.000  C
  C1228    1.0000 0.58556  0.44321  0.16440  Biso   1.000  C
  C1229    1.0000 0.55679  0.33560  0.08556  Biso   1.000  C
  C1230    1.0000 0.55679  0.41444  0.83560  Biso   1.000  C
  C1231    1.0000 0.55679  0.66440  0.91444  Biso   1.000  C
  C1232    1.0000 0.66440  0.58556  0.94321  Biso   1.000  C
  C1233    1.0000 0.44321  0.58556  0.83560  Biso   1.000  C
  C1234    1.0000 0.33560  0.58556  0.05679  Biso   1.000  C
  C1235    1.0000 0.66440  0.55679  0.08556  Biso   1.000  C
  C1236    1.0000 0.58556  0.66440  0.05679  Biso   1.000  C
  C1237    1.0000 0.41444  0.33560  0.05679  Biso   1.000  C
  C1238    1.0000 0.66440  0.44321  0.91444  Biso   1.000  C
  C1239    1.0000 0.41444  0.66440  0.94321  Biso   1.000  C
  C1240    1.0000 0.33560  0.44321  0.08556  Biso   1.000  C
  C1241    1.0000 0.33560  0.55679  0.91444  Biso   1.000  C
  C1242    1.0000 0.58556  0.33560  0.94321  Biso   1.000  C
  C1243    1.0000 0.58556  0.55679  0.83560  Biso   1.000  C
  C1244    1.0000 0.41444  0.44321  0.83560  Biso   1.000  C
  C1245    1.0000 0.44321  0.66440  0.08556  Biso   1.000  C
  C1246    1.0000 0.44321  0.33560  0.91444  Biso   1.000  C
  C1247    1.0000 0.66440  0.41444  0.05679  Biso   1.000  C
  C1248    1.0000 0.33560  0.41444  0.94321  Biso   1.000  C
  C1249    1.0000 0.94321  0.91444  0.83560  Biso   1.000  C
  C1250    1.0000 0.08556  0.94321  0.83560  Biso   1.000  C
  C1251    1.0000 0.05679  0.08556  0.83560  Biso   1.000  C
  C1252    1.0000 0.91444  0.05679  0.83560  Biso   1.000  C
  C1253    1.0000 0.94321  0.16440  0.91444  Biso   1.000  C
  C1254    1.0000 0.94321  0.08556  0.16440  Biso   1.000  C
  C1255    1.0000 0.94321  0.83560  0.08556  Biso   1.000  C
  C1256    1.0000 0.83560  0.91444  0.05679  Biso   1.000  C
  C1257    1.0000 0.05679  0.91444  0.16440  Biso   1.000  C
  C1258    1.0000 0.16440  0.91444  0.94321  Biso   1.000  C
  C1259    1.0000 0.83560  0.94321  0.91444  Biso   1.000  C
  C1260    1.0000 0.91444  0.83560  0.94321  Biso   1.000  C
  C1261    1.0000 0.08556  0.16440  0.94321  Biso   1.000  C
  C1262    1.0000 0.83560  0.05679  0.08556  Biso   1.000  C
  C1263    1.0000 0.08556  0.83560  0.05679  Biso   1.000  C
  C1264    1.0000 0.16440  0.05679  0.91444  Biso   1.000  C
  C1265    1.0000 0.16440  0.94321  0.08556  Biso   1.000  C
  C1266    1.0000 0.91444  0.16440  0.05679  Biso   1.000  C
  C1267    1.0000 0.91444  0.94321  0.16440  Biso   1.000  C
  C1268    1.0000 0.08556  0.05679  0.16440  Biso   1.000  C
  C1269    1.0000 0.05679  0.83560  0.91444  Biso   1.000  C
  C1270    1.0000 0.05679  0.16440  0.08556  Biso   1.000  C
  C1271    1.0000 0.83560  0.08556  0.94321  Biso   1.000  C
  C1272    1.0000 0.16440  0.08556  0.05679  Biso   1.000  C
  C1273    1.0000 0.94321  0.41444  0.33560  Biso   1.000  C
  C1274    1.0000 0.08556  0.44321  0.33560  Biso   1.000  C
  C1275    1.0000 0.05679  0.58556  0.33560  Biso   1.000  C
  C1276    1.0000 0.91444  0.55679  0.33560  Biso   1.000  C
  C1277    1.0000 0.94321  0.66440  0.41444  Biso   1.000  C
  C1278    1.0000 0.94321  0.58556  0.66440  Biso   1.000  C
  C1279    1.0000 0.94321  0.33560  0.58556  Biso   1.000  C
  C1280    1.0000 0.83560  0.41444  0.55679  Biso   1.000  C
  C1281    1.0000 0.05679  0.41444  0.66440  Biso   1.000  C
  C1282    1.0000 0.16440  0.41444  0.44321  Biso   1.000  C
  C1283    1.0000 0.83560  0.44321  0.41444  Biso   1.000  C
  C1284    1.0000 0.91444  0.33560  0.44321  Biso   1.000  C
  C1285    1.0000 0.08556  0.66440  0.44321  Biso   1.000  C
  C1286    1.0000 0.83560  0.55679  0.58556  Biso   1.000  C
  C1287    1.0000 0.08556  0.33560  0.55679  Biso   1.000  C
  C1288    1.0000 0.16440  0.55679  0.41444  Biso   1.000  C
  C1289    1.0000 0.16440  0.44321  0.58556  Biso   1.000  C
  C1290    1.0000 0.91444  0.66440  0.55679  Biso   1.000  C
  C1291    1.0000 0.91444  0.44321  0.66440  Biso   1.000  C
  C1292    1.0000 0.08556  0.55679  0.66440  Biso   1.000  C
  C1293    1.0000 0.05679  0.33560  0.41444  Biso   1.000  C
  C1294    1.0000 0.05679  0.66440  0.58556  Biso   1.000  C
  C1295    1.0000 0.83560  0.58556  0.44321  Biso   1.000  C
  C1296    1.0000 0.16440  0.58556  0.55679  Biso   1.000  C
  C1297    1.0000 0.44321  0.91444  0.33560  Biso   1.000  C
  C1298    1.0000 0.58556  0.94321  0.33560  Biso   1.000  C
  C1299    1.0000 0.55679  0.08556  0.33560  Biso   1.000  C
  C1300    1.0000 0.41444  0.05679  0.33560  Biso   1.000  C
  C1301    1.0000 0.44321  0.16440  0.41444  Biso   1.000  C
  C1302    1.0000 0.44321  0.08556  0.66440  Biso   1.000  C
  C1303    1.0000 0.44321  0.83560  0.58556  Biso   1.000  C
  C1304    1.0000 0.33560  0.91444  0.55679  Biso   1.000  C
  C1305    1.0000 0.55679  0.91444  0.66440  Biso   1.000  C
  C1306    1.0000 0.66440  0.91444  0.44321  Biso   1.000  C
  C1307    1.0000 0.33560  0.94321  0.41444  Biso   1.000  C
  C1308    1.0000 0.41444  0.83560  0.44321  Biso   1.000  C
  C1309    1.0000 0.58556  0.16440  0.44321  Biso   1.000  C
  C1310    1.0000 0.33560  0.05679  0.58556  Biso   1.000  C
  C1311    1.0000 0.58556  0.83560  0.55679  Biso   1.000  C
  C1312    1.0000 0.66440  0.05679  0.41444  Biso   1.000  C
  C1313    1.0000 0.66440  0.94321  0.58556  Biso   1.000  C
  C1314    1.0000 0.41444  0.16440  0.55679  Biso   1.000  C
  C1315    1.0000 0.41444  0.94321  0.66440  Biso   1.000  C
  C1316    1.0000 0.58556  0.05679  0.66440  Biso   1.000  C
  C1317    1.0000 0.55679  0.83560  0.41444  Biso   1.000  C
  C1318    1.0000 0.55679  0.16440  0.58556  Biso   1.000  C
  C1319    1.0000 0.33560  0.08556  0.44321  Biso   1.000  C
  C1320    1.0000 0.66440  0.08556  0.55679  Biso   1.000  C
  C1321    1.0000 0.44321  0.41444  0.83560  Biso   1.000  C
  C1322    1.0000 0.58556  0.44321  0.83560  Biso   1.000  C
  C1323    1.0000 0.55679  0.58556  0.83560  Biso   1.000  C
  C1324    1.0000 0.41444  0.55679  0.83560  Biso   1.000  C
  C1325    1.0000 0.44321  0.66440  0.91444  Biso   1.000  C
  C1326    1.0000 0.44321  0.58556  0.16440  Biso   1.000  C
  C1327    1.0000 0.44321  0.33560  0.08556  Biso   1.000  C
  C1328    1.0000 0.33560  0.41444  0.05679  Biso   1.000  C
  C1329    1.0000 0.55679  0.41444  0.16440  Biso   1.000  C
  C1330    1.0000 0.66440  0.41444  0.94321  Biso   1.000  C
  C1331    1.0000 0.33560  0.44321  0.91444  Biso   1.000  C
  C1332    1.0000 0.41444  0.33560  0.94321  Biso   1.000  C
  C1333    1.0000 0.58556  0.66440  0.94321  Biso   1.000  C
  C1334    1.0000 0.33560  0.55679  0.08556  Biso   1.000  C
  C1335    1.0000 0.58556  0.33560  0.05679  Biso   1.000  C
  C1336    1.0000 0.66440  0.55679  0.91444  Biso   1.000  C
  C1337    1.0000 0.66440  0.44321  0.08556  Biso   1.000  C
  C1338    1.0000 0.41444  0.66440  0.05679  Biso   1.000  C
  C1339    1.0000 0.41444  0.44321  0.16440  Biso   1.000  C
  C1340    1.0000 0.58556  0.55679  0.16440  Biso   1.000  C
  C1341    1.0000 0.55679  0.33560  0.91444  Biso   1.000  C
  C1342    1.0000 0.55679  0.66440  0.08556  Biso   1.000  C
  C1343    1.0000 0.33560  0.58556  0.94321  Biso   1.000  C
  C1344    1.0000 0.66440  0.58556  0.05679  Biso   1.000  C
  C1345    1.0000 0.04960  0.09800  0.17150  Biso   1.000  C
  C1346    1.0000 0.90200  0.04960  0.17150  Biso   1.000  C
  C1347    1.0000 0.95040  0.90200  0.17150  Biso   1.000  C
  C1348    1.0000 0.09800  0.95040  0.17150  Biso   1.000  C
  C1349    1.0000 0.04960  0.82850  0.09800  Biso   1.000  C
  C1350    1.0000 0.04960  0.90200  0.82850  Biso   1.000  C
  C1351    1.0000 0.04960  0.17150  0.90200  Biso   1.000  C
  C1352    1.0000 0.17150  0.09800  0.95040  Biso   1.000  C
  C1353    1.0000 0.95040  0.09800  0.82850  Biso   1.000  C
  C1354    1.0000 0.82850  0.09800  0.04960  Biso   1.000  C
  C1355    1.0000 0.17150  0.04960  0.09800  Biso   1.000  C
  C1356    1.0000 0.09800  0.17150  0.04960  Biso   1.000  C
  C1357    1.0000 0.90200  0.82850  0.04960  Biso   1.000  C
  C1358    1.0000 0.17150  0.95040  0.90200  Biso   1.000  C
  C1359    1.0000 0.90200  0.17150  0.95040  Biso   1.000  C
  C1360    1.0000 0.82850  0.95040  0.09800  Biso   1.000  C
  C1361    1.0000 0.82850  0.04960  0.90200  Biso   1.000  C
  C1362    1.0000 0.09800  0.82850  0.95040  Biso   1.000  C
  C1363    1.0000 0.09800  0.04960  0.82850  Biso   1.000  C
  C1364    1.0000 0.90200  0.95040  0.82850  Biso   1.000  C
  C1365    1.0000 0.95040  0.17150  0.09800  Biso   1.000  C
  C1366    1.0000 0.95040  0.82850  0.90200  Biso   1.000  C
  C1367    1.0000 0.17150  0.90200  0.04960  Biso   1.000  C
  C1368    1.0000 0.82850  0.90200  0.95040  Biso   1.000  C
  C1369    1.0000 0.04960  0.59800  0.67150  Biso   1.000  C
  C1370    1.0000 0.90200  0.54960  0.67150  Biso   1.000  C
  C1371    1.0000 0.95040  0.40200  0.67150  Biso   1.000  C
  C1372    1.0000 0.09800  0.45040  0.67150  Biso   1.000  C
  C1373    1.0000 0.04960  0.32850  0.59800  Biso   1.000  C
  C1374    1.0000 0.04960  0.40200  0.32850  Biso   1.000  C
  C1375    1.0000 0.04960  0.67150  0.40200  Biso   1.000  C
  C1376    1.0000 0.17150  0.59800  0.45040  Biso   1.000  C
  C1377    1.0000 0.95040  0.59800  0.32850  Biso   1.000  C
  C1378    1.0000 0.82850  0.59800  0.54960  Biso   1.000  C
  C1379    1.0000 0.17150  0.54960  0.59800  Biso   1.000  C
  C1380    1.0000 0.09800  0.67150  0.54960  Biso   1.000  C
  C1381    1.0000 0.90200  0.32850  0.54960  Biso   1.000  C
  C1382    1.0000 0.17150  0.45040  0.40200  Biso   1.000  C
  C1383    1.0000 0.90200  0.67150  0.45040  Biso   1.000  C
  C1384    1.0000 0.82850  0.45040  0.59800  Biso   1.000  C
  C1385    1.0000 0.82850  0.54960  0.40200  Biso   1.000  C
  C1386    1.0000 0.09800  0.32850  0.45040  Biso   1.000  C
  C1387    1.0000 0.09800  0.54960  0.32850  Biso   1.000  C
  C1388    1.0000 0.90200  0.45040  0.32850  Biso   1.000  C
  C1389    1.0000 0.95040  0.67150  0.59800  Biso   1.000  C
  C1390    1.0000 0.95040  0.32850  0.40200  Biso   1.000  C
  C1391    1.0000 0.17150  0.40200  0.54960  Biso   1.000  C
  C1392    1.0000 0.82850  0.40200  0.45040  Biso   1.000  C
  C1393    1.0000 0.54960  0.09800  0.67150  Biso   1.000  C
  C1394    1.0000 0.40200  0.04960  0.67150  Biso   1.000  C
  C1395    1.0000 0.45040  0.90200  0.67150  Biso   1.000  C
  C1396    1.0000 0.59800  0.95040  0.67150  Biso   1.000  C
  C1397    1.0000 0.54960  0.82850  0.59800  Biso   1.000  C
  C1398    1.0000 0.54960  0.90200  0.32850  Biso   1.000  C
  C1399    1.0000 0.54960  0.17150  0.40200  Biso   1.000  C
  C1400    1.0000 0.67150  0.09800  0.45040  Biso   1.000  C
  C1401    1.0000 0.45040  0.09800  0.32850  Biso   1.000  C
  C1402    1.0000 0.32850  0.09800  0.54960  Biso   1.000  C
  C1403    1.0000 0.67150  0.04960  0.59800  Biso   1.000  C
  C1404    1.0000 0.59800  0.17150  0.54960  Biso   1.000  C
  C1405    1.0000 0.40200  0.82850  0.54960  Biso   1.000  C
  C1406    1.0000 0.67150  0.95040  0.40200  Biso   1.000  C
  C1407    1.0000 0.40200  0.17150  0.45040  Biso   1.000  C
  C1408    1.0000 0.32850  0.95040  0.59800  Biso   1.000  C
  C1409    1.0000 0.32850  0.04960  0.40200  Biso   1.000  C
  C1410    1.0000 0.59800  0.82850  0.45040  Biso   1.000  C
  C1411    1.0000 0.59800  0.04960  0.32850  Biso   1.000  C
  C1412    1.0000 0.40200  0.95040  0.32850  Biso   1.000  C
  C1413    1.0000 0.45040  0.17150  0.59800  Biso   1.000  C
  C1414    1.0000 0.45040  0.82850  0.40200  Biso   1.000  C
  C1415    1.0000 0.67150  0.90200  0.54960  Biso   1.000  C
  C1416    1.0000 0.32850  0.90200  0.45040  Biso   1.000  C
  C1417    1.0000 0.54960  0.59800  0.17150  Biso   1.000  C
  C1418    1.0000 0.40200  0.54960  0.17150  Biso   1.000  C
  C1419    1.0000 0.45040  0.40200  0.17150  Biso   1.000  C
  C1420    1.0000 0.59800  0.45040  0.17150  Biso   1.000  C
  C1421    1.0000 0.54960  0.32850  0.09800  Biso   1.000  C
  C1422    1.0000 0.54960  0.40200  0.82850  Biso   1.000  C
  C1423    1.0000 0.54960  0.67150  0.90200  Biso   1.000  C
  C1424    1.0000 0.67150  0.59800  0.95040  Biso   1.000  C
  C1425    1.0000 0.45040  0.59800  0.82850  Biso   1.000  C
  C1426    1.0000 0.32850  0.59800  0.04960  Biso   1.000  C
  C1427    1.0000 0.67150  0.54960  0.09800  Biso   1.000  C
  C1428    1.0000 0.59800  0.67150  0.04960  Biso   1.000  C
  C1429    1.0000 0.40200  0.32850  0.04960  Biso   1.000  C
  C1430    1.0000 0.67150  0.45040  0.90200  Biso   1.000  C
  C1431    1.0000 0.40200  0.67150  0.95040  Biso   1.000  C
  C1432    1.0000 0.32850  0.45040  0.09800  Biso   1.000  C
  C1433    1.0000 0.32850  0.54960  0.90200  Biso   1.000  C
  C1434    1.0000 0.59800  0.32850  0.95040  Biso   1.000  C
  C1435    1.0000 0.59800  0.54960  0.82850  Biso   1.000  C
  C1436    1.0000 0.40200  0.45040  0.82850  Biso   1.000  C
  C1437    1.0000 0.45040  0.67150  0.09800  Biso   1.000  C
  C1438    1.0000 0.45040  0.32850  0.90200  Biso   1.000  C
  C1439    1.0000 0.67150  0.40200  0.04960  Biso   1.000  C
  C1440    1.0000 0.32850  0.40200  0.95040  Biso   1.000  C
  C1441    1.0000 0.95040  0.90200  0.82850  Biso   1.000  C
  C1442    1.0000 0.09800  0.95040  0.82850  Biso   1.000  C
  C1443    1.0000 0.04960  0.09800  0.82850  Biso   1.000  C
  C1444    1.0000 0.90200  0.04960  0.82850  Biso   1.000  C
  C1445    1.0000 0.95040  0.17150  0.90200  Biso   1.000  C
  C1446    1.0000 0.95040  0.09800  0.17150  Biso   1.000  C
  C1447    1.0000 0.95040  0.82850  0.09800  Biso   1.000  C
  C1448    1.0000 0.82850  0.90200  0.04960  Biso   1.000  C
  C1449    1.0000 0.04960  0.90200  0.17150  Biso   1.000  C
  C1450    1.0000 0.17150  0.90200  0.95040  Biso   1.000  C
  C1451    1.0000 0.82850  0.95040  0.90200  Biso   1.000  C
  C1452    1.0000 0.90200  0.82850  0.95040  Biso   1.000  C
  C1453    1.0000 0.09800  0.17150  0.95040  Biso   1.000  C
  C1454    1.0000 0.82850  0.04960  0.09800  Biso   1.000  C
  C1455    1.0000 0.09800  0.82850  0.04960  Biso   1.000  C
  C1456    1.0000 0.17150  0.04960  0.90200  Biso   1.000  C
  C1457    1.0000 0.17150  0.95040  0.09800  Biso   1.000  C
  C1458    1.0000 0.90200  0.17150  0.04960  Biso   1.000  C
  C1459    1.0000 0.90200  0.95040  0.17150  Biso   1.000  C
  C1460    1.0000 0.09800  0.04960  0.17150  Biso   1.000  C
  C1461    1.0000 0.04960  0.82850  0.90200  Biso   1.000  C
  C1462    1.0000 0.04960  0.17150  0.09800  Biso   1.000  C
  C1463    1.0000 0.82850  0.09800  0.95040  Biso   1.000  C
  C1464    1.0000 0.17150  0.09800  0.04960  Biso   1.000  C
  C1465    1.0000 0.95040  0.40200  0.32850  Biso   1.000  C
  C1466    1.0000 0.09800  0.45040  0.32850  Biso   1.000  C
  C1467    1.0000 0.04960  0.59800  0.32850  Biso   1.000  C
  C1468    1.0000 0.90200  0.54960  0.32850  Biso   1.000  C
  C1469    1.0000 0.95040  0.67150  0.40200  Biso   1.000  C
  C1470    1.0000 0.95040  0.59800  0.67150  Biso   1.000  C
  C1471    1.0000 0.95040  0.32850  0.59800  Biso   1.000  C
  C1472    1.0000 0.82850  0.40200  0.54960  Biso   1.000  C
  C1473    1.0000 0.04960  0.40200  0.67150  Biso   1.000  C
  C1474    1.0000 0.17150  0.40200  0.45040  Biso   1.000  C
  C1475    1.0000 0.82850  0.45040  0.40200  Biso   1.000  C
  C1476    1.0000 0.90200  0.32850  0.45040  Biso   1.000  C
  C1477    1.0000 0.09800  0.67150  0.45040  Biso   1.000  C
  C1478    1.0000 0.82850  0.54960  0.59800  Biso   1.000  C
  C1479    1.0000 0.09800  0.32850  0.54960  Biso   1.000  C
  C1480    1.0000 0.17150  0.54960  0.40200  Biso   1.000  C
  C1481    1.0000 0.17150  0.45040  0.59800  Biso   1.000  C
  C1482    1.0000 0.90200  0.67150  0.54960  Biso   1.000  C
  C1483    1.0000 0.90200  0.45040  0.67150  Biso   1.000  C
  C1484    1.0000 0.09800  0.54960  0.67150  Biso   1.000  C
  C1485    1.0000 0.04960  0.32850  0.40200  Biso   1.000  C
  C1486    1.0000 0.04960  0.67150  0.59800  Biso   1.000  C
  C1487    1.0000 0.82850  0.59800  0.45040  Biso   1.000  C
  C1488    1.0000 0.17150  0.59800  0.54960  Biso   1.000  C
  C1489    1.0000 0.45040  0.90200  0.32850  Biso   1.000  C
  C1490    1.0000 0.59800  0.95040  0.32850  Biso   1.000  C
  C1491    1.0000 0.54960  0.09800  0.32850  Biso   1.000  C
  C1492    1.0000 0.40200  0.04960  0.32850  Biso   1.000  C
  C1493    1.0000 0.45040  0.17150  0.40200  Biso   1.000  C
  C1494    1.0000 0.45040  0.09800  0.67150  Biso   1.000  C
  C1495    1.0000 0.45040  0.82850  0.59800  Biso   1.000  C
  C1496    1.0000 0.32850  0.90200  0.54960  Biso   1.000  C
  C1497    1.0000 0.54960  0.90200  0.67150  Biso   1.000  C
  C1498    1.0000 0.67150  0.90200  0.45040  Biso   1.000  C
  C1499    1.0000 0.32850  0.95040  0.40200  Biso   1.000  C
  C1500    1.0000 0.40200  0.82850  0.45040  Biso   1.000  C
  C1501    1.0000 0.59800  0.17150  0.45040  Biso   1.000  C
  C1502    1.0000 0.32850  0.04960  0.59800  Biso   1.000  C
  C1503    1.0000 0.59800  0.82850  0.54960  Biso   1.000  C
  C1504    1.0000 0.67150  0.04960  0.40200  Biso   1.000  C
  C1505    1.0000 0.67150  0.95040  0.59800  Biso   1.000  C
  C1506    1.0000 0.40200  0.17150  0.54960  Biso   1.000  C
  C1507    1.0000 0.40200  0.95040  0.67150  Biso   1.000  C
  C1508    1.0000 0.59800  0.04960  0.67150  Biso   1.000  C
  C1509    1.0000 0.54960  0.82850  0.40200  Biso   1.000  C
  C1510    1.0000 0.54960  0.17150  0.59800  Biso   1.000  C
  C1511    1.0000 0.32850  0.09800  0.45040  Biso   1.000  C
  C1512    1.0000 0.67150  0.09800  0.54960  Biso   1.000  C
  C1513    1.0000 0.45040  0.40200  0.82850  Biso   1.000  C
  C1514    1.0000 0.59800  0.45040  0.82850  Biso   1.000  C
  C1515    1.0000 0.54960  0.59800  0.82850  Biso   1.000  C
  C1516    1.0000 0.40200  0.54960  0.82850  Biso   1.000  C
  C1517    1.0000 0.45040  0.67150  0.90200  Biso   1.000  C
  C1518    1.0000 0.45040  0.59800  0.17150  Biso   1.000  C
  C1519    1.0000 0.45040  0.32850  0.09800  Biso   1.000  C
  C1520    1.0000 0.32850  0.40200  0.04960  Biso   1.000  C
  C1521    1.0000 0.54960  0.40200  0.17150  Biso   1.000  C
  C1522    1.0000 0.67150  0.40200  0.95040  Biso   1.000  C
  C1523    1.0000 0.32850  0.45040  0.90200  Biso   1.000  C
  C1524    1.0000 0.40200  0.32850  0.95040  Biso   1.000  C
  C1525    1.0000 0.59800  0.67150  0.95040  Biso   1.000  C
  C1526    1.0000 0.32850  0.54960  0.09800  Biso   1.000  C
  C1527    1.0000 0.59800  0.32850  0.04960  Biso   1.000  C
  C1528    1.0000 0.67150  0.54960  0.90200  Biso   1.000  C
  C1529    1.0000 0.67150  0.45040  0.09800  Biso   1.000  C
  C1530    1.0000 0.40200  0.67150  0.04960  Biso   1.000  C
  C1531    1.0000 0.40200  0.45040  0.17150  Biso   1.000  C
  C1532    1.0000 0.59800  0.54960  0.17150  Biso   1.000  C
  C1533    1.0000 0.54960  0.32850  0.90200  Biso   1.000  C
  C1534    1.0000 0.54960  0.67150  0.09800  Biso   1.000  C
  C1535    1.0000 0.32850  0.59800  0.95040  Biso   1.000  C
  C1536    1.0000 0.67150  0.59800  0.04960  Biso   1.000  C
  C1537    1.0000 0.07456  0.07456  0.17510  Biso   1.000  C
  C1538    1.0000 0.92544  0.07456  0.17510  Biso   1.000  C
  C1539    1.0000 0.92544  0.92544  0.17510  Biso   1.000  C
  C1540    1.0000 0.07456  0.92544  0.17510  Biso   1.000  C
  C1541    1.0000 0.07456  0.82490  0.07456  Biso   1.000  C
  C1542    1.0000 0.07456  0.92544  0.82490  Biso   1.000  C
  C1543    1.0000 0.07456  0.17510  0.92544  Biso   1.000  C
  C1544    1.0000 0.17510  0.07456  0.92544  Biso   1.000  C
  C1545    1.0000 0.92544  0.07456  0.82490  Biso   1.000  C
  C1546    1.0000 0.82490  0.07456  0.07456  Biso   1.000  C
  C1547    1.0000 0.17510  0.07456  0.07456  Biso   1.000  C
  C1548    1.0000 0.07456  0.17510  0.07456  Biso   1.000  C
  C1549    1.0000 0.92544  0.82490  0.07456  Biso   1.000  C
  C1550    1.0000 0.17510  0.92544  0.92544  Biso   1.000  C
  C1551    1.0000 0.92544  0.17510  0.92544  Biso   1.000  C
  C1552    1.0000 0.82490  0.92544  0.07456  Biso   1.000  C
  C1553    1.0000 0.82490  0.07456  0.92544  Biso   1.000  C
  C1554    1.0000 0.07456  0.82490  0.92544  Biso   1.000  C
  C1555    1.0000 0.07456  0.07456  0.82490  Biso   1.000  C
  C1556    1.0000 0.92544  0.92544  0.82490  Biso   1.000  C
  C1557    1.0000 0.92544  0.17510  0.07456  Biso   1.000  C
  C1558    1.0000 0.92544  0.82490  0.92544  Biso   1.000  C
  C1559    1.0000 0.17510  0.92544  0.07456  Biso   1.000  C
  C1560    1.0000 0.82490  0.92544  0.92544  Biso   1.000  C
  C1561    1.0000 0.07456  0.57456  0.67510  Biso   1.000  C
  C1562    1.0000 0.92544  0.57456  0.67510  Biso   1.000  C
  C1563    1.0000 0.92544  0.42544  0.67510  Biso   1.000  C
  C1564    1.0000 0.07456  0.42544  0.67510  Biso   1.000  C
  C1565    1.0000 0.07456  0.32490  0.57456  Biso   1.000  C
  C1566    1.0000 0.07456  0.42544  0.32490  Biso   1.000  C
  C1567    1.0000 0.07456  0.67510  0.42544  Biso   1.000  C
  C1568    1.0000 0.17510  0.57456  0.42544  Biso   1.000  C
  C1569    1.0000 0.92544  0.57456  0.32490  Biso   1.000  C
  C1570    1.0000 0.82490  0.57456  0.57456  Biso   1.000  C
  C1571    1.0000 0.17510  0.57456  0.57456  Biso   1.000  C
  C1572    1.0000 0.07456  0.67510  0.57456  Biso   1.000  C
  C1573    1.0000 0.92544  0.32490  0.57456  Biso   1.000  C
  C1574    1.0000 0.17510  0.42544  0.42544  Biso   1.000  C
  C1575    1.0000 0.92544  0.67510  0.42544  Biso   1.000  C
  C1576    1.0000 0.82490  0.42544  0.57456  Biso   1.000  C
  C1577    1.0000 0.82490  0.57456  0.42544  Biso   1.000  C
  C1578    1.0000 0.07456  0.32490  0.42544  Biso   1.000  C
  C1579    1.0000 0.07456  0.57456  0.32490  Biso   1.000  C
  C1580    1.0000 0.92544  0.42544  0.32490  Biso   1.000  C
  C1581    1.0000 0.92544  0.67510  0.57456  Biso   1.000  C
  C1582    1.0000 0.92544  0.32490  0.42544  Biso   1.000  C
  C1583    1.0000 0.17510  0.42544  0.57456  Biso   1.000  C
  C1584    1.0000 0.82490  0.42544  0.42544  Biso   1.000  C
  C1585    1.0000 0.57456  0.07456  0.67510  Biso   1.000  C
  C1586    1.0000 0.42544  0.07456  0.67510  Biso   1.000  C
  C1587    1.0000 0.42544  0.92544  0.67510  Biso   1.000  C
  C1588    1.0000 0.57456  0.92544  0.67510  Biso   1.000  C
  C1589    1.0000 0.57456  0.82490  0.57456  Biso   1.000  C
  C1590    1.0000 0.57456  0.92544  0.32490  Biso   1.000  C
  C1591    1.0000 0.57456  0.17510  0.42544  Biso   1.000  C
  C1592    1.0000 0.67510  0.07456  0.42544  Biso   1.000  C
  C1593    1.0000 0.42544  0.07456  0.32490  Biso   1.000  C
  C1594    1.0000 0.32490  0.07456  0.57456  Biso   1.000  C
  C1595    1.0000 0.67510  0.07456  0.57456  Biso   1.000  C
  C1596    1.0000 0.57456  0.17510  0.57456  Biso   1.000  C
  C1597    1.0000 0.42544  0.82490  0.57456  Biso   1.000  C
  C1598    1.0000 0.67510  0.92544  0.42544  Biso   1.000  C
  C1599    1.0000 0.42544  0.17510  0.42544  Biso   1.000  C
  C1600    1.0000 0.32490  0.92544  0.57456  Biso   1.000  C
  C1601    1.0000 0.32490  0.07456  0.42544  Biso   1.000  C
  C1602    1.0000 0.57456  0.82490  0.42544  Biso   1.000  C
  C1603    1.0000 0.57456  0.07456  0.32490  Biso   1.000  C
  C1604    1.0000 0.42544  0.92544  0.32490  Biso   1.000  C
  C1605    1.0000 0.42544  0.17510  0.57456  Biso   1.000  C
  C1606    1.0000 0.42544  0.82490  0.42544  Biso   1.000  C
  C1607    1.0000 0.67510  0.92544  0.57456  Biso   1.000  C
  C1608    1.0000 0.32490  0.92544  0.42544  Biso   1.000  C
  C1609    1.0000 0.57456  0.57456  0.17510  Biso   1.000  C
  C1610    1.0000 0.42544  0.57456  0.17510  Biso   1.000  C
  C1611    1.0000 0.42544  0.42544  0.17510  Biso   1.000  C
  C1612    1.0000 0.57456  0.42544  0.17510  Biso   1.000  C
  C1613    1.0000 0.57456  0.32490  0.07456  Biso   1.000  C
  C1614    1.0000 0.57456  0.42544  0.82490  Biso   1.000  C
  C1615    1.0000 0.57456  0.67510  0.92544  Biso   1.000  C
  C1616    1.0000 0.67510  0.57456  0.92544  Biso   1.000  C
  C1617    1.0000 0.42544  0.57456  0.82490  Biso   1.000  C
  C1618    1.0000 0.32490  0.57456  0.07456  Biso   1.000  C
  C1619    1.0000 0.67510  0.57456  0.07456  Biso   1.000  C
  C1620    1.0000 0.57456  0.67510  0.07456  Biso   1.000  C
  C1621    1.0000 0.42544  0.32490  0.07456  Biso   1.000  C
  C1622    1.0000 0.67510  0.42544  0.92544  Biso   1.000  C
  C1623    1.0000 0.42544  0.67510  0.92544  Biso   1.000  C
  C1624    1.0000 0.32490  0.42544  0.07456  Biso   1.000  C
  C1625    1.0000 0.32490  0.57456  0.92544  Biso   1.000  C
  C1626    1.0000 0.57456  0.32490  0.92544  Biso   1.000  C
  C1627    1.0000 0.57456  0.57456  0.82490  Biso   1.000  C
  C1628    1.0000 0.42544  0.42544  0.82490  Biso   1.000  C
  C1629    1.0000 0.42544  0.67510  0.07456  Biso   1.000  C
  C1630    1.0000 0.42544  0.32490  0.92544  Biso   1.000  C
  C1631    1.0000 0.67510  0.42544  0.07456  Biso   1.000  C
  C1632    1.0000 0.32490  0.42544  0.92544  Biso   1.000  C
  C1633    1.0000 0.08200  0.08200  0.19690  Biso   1.000  C
  C1634    1.0000 0.91800  0.08200  0.19690  Biso   1.000  C
  C1635    1.0000 0.91800  0.91800  0.19690  Biso   1.000  C
  C1636    1.0000 0.08200  0.91800  0.19690  Biso   1.000  C
  C1637    1.0000 0.08200  0.80310  0.08200  Biso   1.000  C
  C1638    1.0000 0.08200  0.91800  0.80310  Biso   1.000  C
  C1639    1.0000 0.08200  0.19690  0.91800  Biso   1.000  C
  C1640    1.0000 0.19690  0.08200  0.91800  Biso   1.000  C
  C1641    1.0000 0.91800  0.08200  0.80310  Biso   1.000  C
  C1642    1.0000 0.80310  0.08200  0.08200  Biso   1.000  C
  C1643    1.0000 0.19690  0.08200  0.08200  Biso   1.000  C
  C1644    1.0000 0.08200  0.19690  0.08200  Biso   1.000  C
  C1645    1.0000 0.91800  0.80310  0.08200  Biso   1.000  C
  C1646    1.0000 0.19690  0.91800  0.91800  Biso   1.000  C
  C1647    1.0000 0.91800  0.19690  0.91800  Biso   1.000  C
  C1648    1.0000 0.80310  0.91800  0.08200  Biso   1.000  C
  C1649    1.0000 0.80310  0.08200  0.91800  Biso   1.000  C
  C1650    1.0000 0.08200  0.80310  0.91800  Biso   1.000  C
  C1651    1.0000 0.08200  0.08200  0.80310  Biso   1.000  C
  C1652    1.0000 0.91800  0.91800  0.80310  Biso   1.000  C
  C1653    1.0000 0.91800  0.19690  0.08200  Biso   1.000  C
  C1654    1.0000 0.91800  0.80310  0.91800  Biso   1.000  C
  C1655    1.0000 0.19690  0.91800  0.08200  Biso   1.000  C
  C1656    1.0000 0.80310  0.91800  0.91800  Biso   1.000  C
  C1657    1.0000 0.08200  0.58200  0.69690  Biso   1.000  C
  C1658    1.0000 0.91800  0.58200  0.69690  Biso   1.000  C
  C1659    1.0000 0.91800  0.41800  0.69690  Biso   1.000  C
  C1660    1.0000 0.08200  0.41800  0.69690  Biso   1.000  C
  C1661    1.0000 0.08200  0.30310  0.58200  Biso   1.000  C
  C1662    1.0000 0.08200  0.41800  0.30310  Biso   1.000  C
  C1663    1.0000 0.08200  0.69690  0.41800  Biso   1.000  C
  C1664    1.0000 0.19690  0.58200  0.41800  Biso   1.000  C
  C1665    1.0000 0.91800  0.58200  0.30310  Biso   1.000  C
  C1666    1.0000 0.80310  0.58200  0.58200  Biso   1.000  C
  C1667    1.0000 0.19690  0.58200  0.58200  Biso   1.000  C
  C1668    1.0000 0.08200  0.69690  0.58200  Biso   1.000  C
  C1669    1.0000 0.91800  0.30310  0.58200  Biso   1.000  C
  C1670    1.0000 0.19690  0.41800  0.41800  Biso   1.000  C
  C1671    1.0000 0.91800  0.69690  0.41800  Biso   1.000  C
  C1672    1.0000 0.80310  0.41800  0.58200  Biso   1.000  C
  C1673    1.0000 0.80310  0.58200  0.41800  Biso   1.000  C
  C1674    1.0000 0.08200  0.30310  0.41800  Biso   1.000  C
  C1675    1.0000 0.08200  0.58200  0.30310  Biso   1.000  C
  C1676    1.0000 0.91800  0.41800  0.30310  Biso   1.000  C
  C1677    1.0000 0.91800  0.69690  0.58200  Biso   1.000  C
  C1678    1.0000 0.91800  0.30310  0.41800  Biso   1.000  C
  C1679    1.0000 0.19690  0.41800  0.58200  Biso   1.000  C
  C1680    1.0000 0.80310  0.41800  0.41800  Biso   1.000  C
  C1681    1.0000 0.58200  0.08200  0.69690  Biso   1.000  C
  C1682    1.0000 0.41800  0.08200  0.69690  Biso   1.000  C
  C1683    1.0000 0.41800  0.91800  0.69690  Biso   1.000  C
  C1684    1.0000 0.58200  0.91800  0.69690  Biso   1.000  C
  C1685    1.0000 0.58200  0.80310  0.58200  Biso   1.000  C
  C1686    1.0000 0.58200  0.91800  0.30310  Biso   1.000  C
  C1687    1.0000 0.58200  0.19690  0.41800  Biso   1.000  C
  C1688    1.0000 0.69690  0.08200  0.41800  Biso   1.000  C
  C1689    1.0000 0.41800  0.08200  0.30310  Biso   1.000  C
  C1690    1.0000 0.30310  0.08200  0.58200  Biso   1.000  C
  C1691    1.0000 0.69690  0.08200  0.58200  Biso   1.000  C
  C1692    1.0000 0.58200  0.19690  0.58200  Biso   1.000  C
  C1693    1.0000 0.41800  0.80310  0.58200  Biso   1.000  C
  C1694    1.0000 0.69690  0.91800  0.41800  Biso   1.000  C
  C1695    1.0000 0.41800  0.19690  0.41800  Biso   1.000  C
  C1696    1.0000 0.30310  0.91800  0.58200  Biso   1.000  C
  C1697    1.0000 0.30310  0.08200  0.41800  Biso   1.000  C
  C1698    1.0000 0.58200  0.80310  0.41800  Biso   1.000  C
  C1699    1.0000 0.58200  0.08200  0.30310  Biso   1.000  C
  C1700    1.0000 0.41800  0.91800  0.30310  Biso   1.000  C
  C1701    1.0000 0.41800  0.19690  0.58200  Biso   1.000  C
  C1702    1.0000 0.41800  0.80310  0.41800  Biso   1.000  C
  C1703    1.0000 0.69690  0.91800  0.58200  Biso   1.000  C
  C1704    1.0000 0.30310  0.91800  0.41800  Biso   1.000  C
  C1705    1.0000 0.58200  0.58200  0.19690  Biso   1.000  C
  C1706    1.0000 0.41800  0.58200  0.19690  Biso   1.000  C
  C1707    1.0000 0.41800  0.41800  0.19690  Biso   1.000  C
  C1708    1.0000 0.58200  0.41800  0.19690  Biso   1.000  C
  C1709    1.0000 0.58200  0.30310  0.08200  Biso   1.000  C
  C1710    1.0000 0.58200  0.41800  0.80310  Biso   1.000  C
  C1711    1.0000 0.58200  0.69690  0.91800  Biso   1.000  C
  C1712    1.0000 0.69690  0.58200  0.91800  Biso   1.000  C
  C1713    1.0000 0.41800  0.58200  0.80310  Biso   1.000  C
  C1714    1.0000 0.30310  0.58200  0.08200  Biso   1.000  C
  C1715    1.0000 0.69690  0.58200  0.08200  Biso   1.000  C
  C1716    1.0000 0.58200  0.69690  0.08200  Biso   1.000  C
  C1717    1.0000 0.41800  0.30310  0.08200  Biso   1.000  C
  C1718    1.0000 0.69690  0.41800  0.91800  Biso   1.000  C
  C1719    1.0000 0.41800  0.69690  0.91800  Biso   1.000  C
  C1720    1.0000 0.30310  0.41800  0.08200  Biso   1.000  C
  C1721    1.0000 0.30310  0.58200  0.91800  Biso   1.000  C
  C1722    1.0000 0.58200  0.30310  0.91800  Biso   1.000  C
  C1723    1.0000 0.58200  0.58200  0.80310  Biso   1.000  C
  C1724    1.0000 0.41800  0.41800  0.80310  Biso   1.000  C
  C1725    1.0000 0.41800  0.69690  0.08200  Biso   1.000  C
  C1726    1.0000 0.41800  0.30310  0.91800  Biso   1.000  C
  C1727    1.0000 0.69690  0.41800  0.08200  Biso   1.000  C
  C1728    1.0000 0.30310  0.41800  0.91800  Biso   1.000  C
  C1729    1.0000 0.08710  0.08710  0.21490  Biso   1.000  C
  C1730    1.0000 0.91290  0.08710  0.21490  Biso   1.000  C
  C1731    1.0000 0.91290  0.91290  0.21490  Biso   1.000  C
  C1732    1.0000 0.08710  0.91290  0.21490  Biso   1.000  C
  C1733    1.0000 0.08710  0.78510  0.08710  Biso   1.000  C
  C1734    1.0000 0.08710  0.91290  0.78510  Biso   1.000  C
  C1735    1.0000 0.08710  0.21490  0.91290  Biso   1.000  C
  C1736    1.0000 0.21490  0.08710  0.91290  Biso   1.000  C
  C1737    1.0000 0.91290  0.08710  0.78510  Biso   1.000  C
  C1738    1.0000 0.78510  0.08710  0.08710  Biso   1.000  C
  C1739    1.0000 0.21490  0.08710  0.08710  Biso   1.000  C
  C1740    1.0000 0.08710  0.21490  0.08710  Biso   1.000  C
  C1741    1.0000 0.91290  0.78510  0.08710  Biso   1.000  C
  C1742    1.0000 0.21490  0.91290  0.91290  Biso   1.000  C
  C1743    1.0000 0.91290  0.21490  0.91290  Biso   1.000  C
  C1744    1.0000 0.78510  0.91290  0.08710  Biso   1.000  C
  C1745    1.0000 0.78510  0.08710  0.91290  Biso   1.000  C
  C1746    1.0000 0.08710  0.78510  0.91290  Biso   1.000  C
  C1747    1.0000 0.08710  0.08710  0.78510  Biso   1.000  C
  C1748    1.0000 0.91290  0.91290  0.78510  Biso   1.000  C
  C1749    1.0000 0.91290  0.21490  0.08710  Biso   1.000  C
  C1750    1.0000 0.91290  0.78510  0.91290  Biso   1.000  C
  C1751    1.0000 0.21490  0.91290  0.08710  Biso   1.000  C
  C1752    1.0000 0.78510  0.91290  0.91290  Biso   1.000  C
  C1753    1.0000 0.08710  0.58710  0.71490  Biso   1.000  C
  C1754    1.0000 0.91290  0.58710  0.71490  Biso   1.000  C
  C1755    1.0000 0.91290  0.41290  0.71490  Biso   1.000  C
  C1756    1.0000 0.08710  0.41290  0.71490  Biso   1.000  C
  C1757    1.0000 0.08710  0.28510  0.58710  Biso   1.000  C
  C1758    1.0000 0.08710  0.41290  0.28510  Biso   1.000  C
  C1759    1.0000 0.08710  0.71490  0.41290  Biso   1.000  C
  C1760    1.0000 0.21490  0.58710  0.41290  Biso   1.000  C
  C1761    1.0000 0.91290  0.58710  0.28510  Biso   1.000  C
  C1762    1.0000 0.78510  0.58710  0.58710  Biso   1.000  C
  C1763    1.0000 0.21490  0.58710  0.58710  Biso   1.000  C
  C1764    1.0000 0.08710  0.71490  0.58710  Biso   1.000  C
  C1765    1.0000 0.91290  0.28510  0.58710  Biso   1.000  C
  C1766    1.0000 0.21490  0.41290  0.41290  Biso   1.000  C
  C1767    1.0000 0.91290  0.71490  0.41290  Biso   1.000  C
  C1768    1.0000 0.78510  0.41290  0.58710  Biso   1.000  C
  C1769    1.0000 0.78510  0.58710  0.41290  Biso   1.000  C
  C1770    1.0000 0.08710  0.28510  0.41290  Biso   1.000  C
  C1771    1.0000 0.08710  0.58710  0.28510  Biso   1.000  C
  C1772    1.0000 0.91290  0.41290  0.28510  Biso   1.000  C
  C1773    1.0000 0.91290  0.71490  0.58710  Biso   1.000  C
  C1774    1.0000 0.91290  0.28510  0.41290  Biso   1.000  C
  C1775    1.0000 0.21490  0.41290  0.58710  Biso   1.000  C
  C1776    1.0000 0.78510  0.41290  0.41290  Biso   1.000  C
  C1777    1.0000 0.58710  0.08710  0.71490  Biso   1.000  C
  C1778    1.0000 0.41290  0.08710  0.71490  Biso   1.000  C
  C1779    1.0000 0.41290  0.91290  0.71490  Biso   1.000  C
  C1780    1.0000 0.58710  0.91290  0.71490  Biso   1.000  C
  C1781    1.0000 0.58710  0.78510  0.58710  Biso   1.000  C
  C1782    1.0000 0.58710  0.91290  0.28510  Biso   1.000  C
  C1783    1.0000 0.58710  0.21490  0.41290  Biso   1.000  C
  C1784    1.0000 0.71490  0.08710  0.41290  Biso   1.000  C
  C1785    1.0000 0.41290  0.08710  0.28510  Biso   1.000  C
  C1786    1.0000 0.28510  0.08710  0.58710  Biso   1.000  C
  C1787    1.0000 0.71490  0.08710  0.58710  Biso   1.000  C
  C1788    1.0000 0.58710  0.21490  0.58710  Biso   1.000  C
  C1789    1.0000 0.41290  0.78510  0.58710  Biso   1.000  C
  C1790    1.0000 0.71490  0.91290  0.41290  Biso   1.000  C
  C1791    1.0000 0.41290  0.21490  0.41290  Biso   1.000  C
  C1792    1.0000 0.28510  0.91290  0.58710  Biso   1.000  C
  C1793    1.0000 0.28510  0.08710  0.41290  Biso   1.000  C
  C1794    1.0000 0.58710  0.78510  0.41290  Biso   1.000  C
  C1795    1.0000 0.58710  0.08710  0.28510  Biso   1.000  C
  C1796    1.0000 0.41290  0.91290  0.28510  Biso   1.000  C
  C1797    1.0000 0.41290  0.21490  0.58710  Biso   1.000  C
  C1798    1.0000 0.41290  0.78510  0.41290  Biso   1.000  C
  C1799    1.0000 0.71490  0.91290  0.58710  Biso   1.000  C
  C1800    1.0000 0.28510  0.91290  0.41290  Biso   1.000  C
  C1801    1.0000 0.58710  0.58710  0.21490  Biso   1.000  C
  C1802    1.0000 0.41290  0.58710  0.21490  Biso   1.000  C
  C1803    1.0000 0.41290  0.41290  0.21490  Biso   1.000  C
  C1804    1.0000 0.58710  0.41290  0.21490  Biso   1.000  C
  C1805    1.0000 0.58710  0.28510  0.08710  Biso   1.000  C
  C1806    1.0000 0.58710  0.41290  0.78510  Biso   1.000  C
  C1807    1.0000 0.58710  0.71490  0.91290  Biso   1.000  C
  C1808    1.0000 0.71490  0.58710  0.91290  Biso   1.000  C
  C1809    1.0000 0.41290  0.58710  0.78510  Biso   1.000  C
  C1810    1.0000 0.28510  0.58710  0.08710  Biso   1.000  C
  C1811    1.0000 0.71490  0.58710  0.08710  Biso   1.000  C
  C1812    1.0000 0.58710  0.71490  0.08710  Biso   1.000  C
  C1813    1.0000 0.41290  0.28510  0.08710  Biso   1.000  C
  C1814    1.0000 0.71490  0.41290  0.91290  Biso   1.000  C
  C1815    1.0000 0.41290  0.71490  0.91290  Biso   1.000  C
  C1816    1.0000 0.28510  0.41290  0.08710  Biso   1.000  C
  C1817    1.0000 0.28510  0.58710  0.91290  Biso   1.000  C
  C1818    1.0000 0.58710  0.28510  0.91290  Biso   1.000  C
  C1819    1.0000 0.58710  0.58710  0.78510  Biso   1.000  C
  C1820    1.0000 0.41290  0.41290  0.78510  Biso   1.000  C
  C1821    1.0000 0.41290  0.71490  0.08710  Biso   1.000  C
  C1822    1.0000 0.41290  0.28510  0.91290  Biso   1.000  C
  C1823    1.0000 0.71490  0.41290  0.08710  Biso   1.000  C
  C1824    1.0000 0.28510  0.41290  0.91290  Biso   1.000  C
  C1825    1.0000 0.09450  0.09450  0.23650  Biso   1.000  C
  C1826    1.0000 0.90550  0.09450  0.23650  Biso   1.000  C
  C1827    1.0000 0.90550  0.90550  0.23650  Biso   1.000  C
  C1828    1.0000 0.09450  0.90550  0.23650  Biso   1.000  C
  C1829    1.0000 0.09450  0.76350  0.09450  Biso   1.000  C
  C1830    1.0000 0.09450  0.90550  0.76350  Biso   1.000  C
  C1831    1.0000 0.09450  0.23650  0.90550  Biso   1.000  C
  C1832    1.0000 0.23650  0.09450  0.90550  Biso   1.000  C
  C1833    1.0000 0.90550  0.09450  0.76350  Biso   1.000  C
  C1834    1.0000 0.76350  0.09450  0.09450  Biso   1.000  C
  C1835    1.0000 0.23650  0.09450  0.09450  Biso   1.000  C
  C1836    1.0000 0.09450  0.23650  0.09450  Biso   1.000  C
  C1837    1.0000 0.90550  0.76350  0.09450  Biso   1.000  C
  C1838    1.0000 0.23650  0.90550  0.90550  Biso   1.000  C
  C1839    1.0000 0.90550  0.23650  0.90550  Biso   1.000  C
  C1840    1.0000 0.76350  0.90550  0.09450  Biso   1.000  C
  C1841    1.0000 0.76350  0.09450  0.90550  Biso   1.000  C
  C1842    1.0000 0.09450  0.76350  0.90550  Biso   1.000  C
  C1843    1.0000 0.09450  0.09450  0.76350  Biso   1.000  C
  C1844    1.0000 0.90550  0.90550  0.76350  Biso   1.000  C
  C1845    1.0000 0.90550  0.23650  0.09450  Biso   1.000  C
  C1846    1.0000 0.90550  0.76350  0.90550  Biso   1.000  C
  C1847    1.0000 0.23650  0.90550  0.09450  Biso   1.000  C
  C1848    1.0000 0.76350  0.90550  0.90550  Biso   1.000  C
  C1849    1.0000 0.09450  0.59450  0.73650  Biso   1.000  C
  C1850    1.0000 0.90550  0.59450  0.73650  Biso   1.000  C
  C1851    1.0000 0.90550  0.40550  0.73650  Biso   1.000  C
  C1852    1.0000 0.09450  0.40550  0.73650  Biso   1.000  C
  C1853    1.0000 0.09450  0.26350  0.59450  Biso   1.000  C
  C1854    1.0000 0.09450  0.40550  0.26350  Biso   1.000  C
  C1855    1.0000 0.09450  0.73650  0.40550  Biso   1.000  C
  C1856    1.0000 0.23650  0.59450  0.40550  Biso   1.000  C
  C1857    1.0000 0.90550  0.59450  0.26350  Biso   1.000  C
  C1858    1.0000 0.76350  0.59450  0.59450  Biso   1.000  C
  C1859    1.0000 0.23650  0.59450  0.59450  Biso   1.000  C
  C1860    1.0000 0.09450  0.73650  0.59450  Biso   1.000  C
  C1861    1.0000 0.90550  0.26350  0.59450  Biso   1.000  C
  C1862    1.0000 0.23650  0.40550  0.40550  Biso   1.000  C
  C1863    1.0000 0.90550  0.73650  0.40550  Biso   1.000  C
  C1864    1.0000 0.76350  0.40550  0.59450  Biso   1.000  C
  C1865    1.0000 0.76350  0.59450  0.40550  Biso   1.000  C
  C1866    1.0000 0.09450  0.26350  0.40550  Biso   1.000  C
  C1867    1.0000 0.09450  0.59450  0.26350  Biso   1.000  C
  C1868    1.0000 0.90550  0.40550  0.26350  Biso   1.000  C
  C1869    1.0000 0.90550  0.73650  0.59450  Biso   1.000  C
  C1870    1.0000 0.90550  0.26350  0.40550  Biso   1.000  C
  C1871    1.0000 0.23650  0.40550  0.59450  Biso   1.000  C
  C1872    1.0000 0.76350  0.40550  0.40550  Biso   1.000  C
  C1873    1.0000 0.59450  0.09450  0.73650  Biso   1.000  C
  C1874    1.0000 0.40550  0.09450  0.73650  Biso   1.000  C
  C1875    1.0000 0.40550  0.90550  0.73650  Biso   1.000  C
  C1876    1.0000 0.59450  0.90550  0.73650  Biso   1.000  C
  C1877    1.0000 0.59450  0.76350  0.59450  Biso   1.000  C
  C1878    1.0000 0.59450  0.90550  0.26350  Biso   1.000  C
  C1879    1.0000 0.59450  0.23650  0.40550  Biso   1.000  C
  C1880    1.0000 0.73650  0.09450  0.40550  Biso   1.000  C
  C1881    1.0000 0.40550  0.09450  0.26350  Biso   1.000  C
  C1882    1.0000 0.26350  0.09450  0.59450  Biso   1.000  C
  C1883    1.0000 0.73650  0.09450  0.59450  Biso   1.000  C
  C1884    1.0000 0.59450  0.23650  0.59450  Biso   1.000  C
  C1885    1.0000 0.40550  0.76350  0.59450  Biso   1.000  C
  C1886    1.0000 0.73650  0.90550  0.40550  Biso   1.000  C
  C1887    1.0000 0.40550  0.23650  0.40550  Biso   1.000  C
  C1888    1.0000 0.26350  0.90550  0.59450  Biso   1.000  C
  C1889    1.0000 0.26350  0.09450  0.40550  Biso   1.000  C
  C1890    1.0000 0.59450  0.76350  0.40550  Biso   1.000  C
  C1891    1.0000 0.59450  0.09450  0.26350  Biso   1.000  C
  C1892    1.0000 0.40550  0.90550  0.26350  Biso   1.000  C
  C1893    1.0000 0.40550  0.23650  0.59450  Biso   1.000  C
  C1894    1.0000 0.40550  0.76350  0.40550  Biso   1.000  C
  C1895    1.0000 0.73650  0.90550  0.59450  Biso   1.000  C
  C1896    1.0000 0.26350  0.90550  0.40550  Biso   1.000  C
  C1897    1.0000 0.59450  0.59450  0.23650  Biso   1.000  C
  C1898    1.0000 0.40550  0.59450  0.23650  Biso   1.000  C
  C1899    1.0000 0.40550  0.40550  0.23650  Biso   1.000  C
  C1900    1.0000 0.59450  0.40550  0.23650  Biso   1.000  C
  C1901    1.0000 0.59450  0.26350  0.09450  Biso   1.000  C
  C1902    1.0000 0.59450  0.40550  0.76350  Biso   1.000  C
  C1903    1.0000 0.59450  0.73650  0.90550  Biso   1.000  C
  C1904    1.0000 0.73650  0.59450  0.90550  Biso   1.000  C
  C1905    1.0000 0.40550  0.59450  0.76350  Biso   1.000  C
  C1906    1.0000 0.26350  0.59450  0.09450  Biso   1.000  C
  C1907    1.0000 0.73650  0.59450  0.09450  Biso   1.000  C
  C1908    1.0000 0.59450  0.73650  0.09450  Biso   1.000  C
  C1909    1.0000 0.40550  0.26350  0.09450  Biso   1.000  C
  C1910    1.0000 0.73650  0.40550  0.90550  Biso   1.000  C
  C1911    1.0000 0.40550  0.73650  0.90550  Biso   1.000  C
  C1912    1.0000 0.26350  0.40550  0.09450  Biso   1.000  C
  C1913    1.0000 0.26350  0.59450  0.90550  Biso   1.000  C
  C1914    1.0000 0.59450  0.26350  0.90550  Biso   1.000  C
  C1915    1.0000 0.59450  0.59450  0.76350  Biso   1.000  C
  C1916    1.0000 0.40550  0.40550  0.76350  Biso   1.000  C
  C1917    1.0000 0.40550  0.73650  0.09450  Biso   1.000  C
  C1918    1.0000 0.40550  0.26350  0.90550  Biso   1.000  C
  C1919    1.0000 0.73650  0.40550  0.09450  Biso   1.000  C
  C1920    1.0000 0.26350  0.40550  0.90550  Biso   1.000  C
  C1921    1.0000 0.08380  0.11250  0.24710  Biso   1.000  C
  C1922    1.0000 0.88750  0.08380  0.24710  Biso   1.000  C
  C1923    1.0000 0.91620  0.88750  0.24710  Biso   1.000  C
  C1924    1.0000 0.11250  0.91620  0.24710  Biso   1.000  C
  C1925    1.0000 0.08380  0.75290  0.11250  Biso   1.000  C
  C1926    1.0000 0.08380  0.88750  0.75290  Biso   1.000  C
  C1927    1.0000 0.08380  0.24710  0.88750  Biso   1.000  C
  C1928    1.0000 0.24710  0.11250  0.91620  Biso   1.000  C
  C1929    1.0000 0.91620  0.11250  0.75290  Biso   1.000  C
  C1930    1.0000 0.75290  0.11250  0.08380  Biso   1.000  C
  C1931    1.0000 0.24710  0.08380  0.11250  Biso   1.000  C
  C1932    1.0000 0.11250  0.24710  0.08380  Biso   1.000  C
  C1933    1.0000 0.88750  0.75290  0.08380  Biso   1.000  C
  C1934    1.0000 0.24710  0.91620  0.88750  Biso   1.000  C
  C1935    1.0000 0.88750  0.24710  0.91620  Biso   1.000  C
  C1936    1.0000 0.75290  0.91620  0.11250  Biso   1.000  C
  C1937    1.0000 0.75290  0.08380  0.88750  Biso   1.000  C
  C1938    1.0000 0.11250  0.75290  0.91620  Biso   1.000  C
  C1939    1.0000 0.11250  0.08380  0.75290  Biso   1.000  C
  C1940    1.0000 0.88750  0.91620  0.75290  Biso   1.000  C
  C1941    1.0000 0.91620  0.24710  0.11250  Biso   1.000  C
  C1942    1.0000 0.91620  0.75290  0.88750  Biso   1.000  C
  C1943    1.0000 0.24710  0.88750  0.08380  Biso   1.000  C
  C1944    1.0000 0.75290  0.88750  0.91620  Biso   1.000  C
  C1945    1.0000 0.08380  0.61250  0.74710  Biso   1.000  C
  C1946    1.0000 0.88750  0.58380  0.74710  Biso   1.000  C
  C1947    1.0000 0.91620  0.38750  0.74710  Biso   1.000  C
  C1948    1.0000 0.11250  0.41620  0.74710  Biso   1.000  C
  C1949    1.0000 0.08380  0.25290  0.61250  Biso   1.000  C
  C1950    1.0000 0.08380  0.38750  0.25290  Biso   1.000  C
  C1951    1.0000 0.08380  0.74710  0.38750  Biso   1.000  C
  C1952    1.0000 0.24710  0.61250  0.41620  Biso   1.000  C
  C1953    1.0000 0.91620  0.61250  0.25290  Biso   1.000  C
  C1954    1.0000 0.75290  0.61250  0.58380  Biso   1.000  C
  C1955    1.0000 0.24710  0.58380  0.61250  Biso   1.000  C
  C1956    1.0000 0.11250  0.74710  0.58380  Biso   1.000  C
  C1957    1.0000 0.88750  0.25290  0.58380  Biso   1.000  C
  C1958    1.0000 0.24710  0.41620  0.38750  Biso   1.000  C
  C1959    1.0000 0.88750  0.74710  0.41620  Biso   1.000  C
  C1960    1.0000 0.75290  0.41620  0.61250  Biso   1.000  C
  C1961    1.0000 0.75290  0.58380  0.38750  Biso   1.000  C
  C1962    1.0000 0.11250  0.25290  0.41620  Biso   1.000  C
  C1963    1.0000 0.11250  0.58380  0.25290  Biso   1.000  C
  C1964    1.0000 0.88750  0.41620  0.25290  Biso   1.000  C
  C1965    1.0000 0.91620  0.74710  0.61250  Biso   1.000  C
  C1966    1.0000 0.91620  0.25290  0.38750  Biso   1.000  C
  C1967    1.0000 0.24710  0.38750  0.58380  Biso   1.000  C
  C1968    1.0000 0.75290  0.38750  0.41620  Biso   1.000  C
  C1969    1.0000 0.58380  0.11250  0.74710  Biso   1.000  C
  C1970    1.0000 0.38750  0.08380  0.74710  Biso   1.000  C
  C1971    1.0000 0.41620  0.88750  0.74710  Biso   1.000  C
  C1972    1.0000 0.61250  0.91620  0.74710  Biso   1.000  C
  C1973    1.0000 0.58380  0.75290  0.61250  Biso   1.000  C
  C1974    1.0000 0.58380  0.88750  0.25290  Biso   1.000  C
  C1975    1.0000 0.58380  0.24710  0.38750  Biso   1.000  C
  C1976    1.0000 0.74710  0.11250  0.41620  Biso   1.000  C
  C1977    1.0000 0.41620  0.11250  0.25290  Biso   1.000  C
  C1978    1.0000 0.25290  0.11250  0.58380  Biso   1.000  C
  C1979    1.0000 0.74710  0.08380  0.61250  Biso   1.000  C
  C1980    1.0000 0.61250  0.24710  0.58380  Biso   1.000  C
  C1981    1.0000 0.38750  0.75290  0.58380  Biso   1.000  C
  C1982    1.0000 0.74710  0.91620  0.38750  Biso   1.000  C
  C1983    1.0000 0.38750  0.24710  0.41620  Biso   1.000  C
  C1984    1.0000 0.25290  0.91620  0.61250  Biso   1.000  C
  C1985    1.0000 0.25290  0.08380  0.38750  Biso   1.000  C
  C1986    1.0000 0.61250  0.75290  0.41620  Biso   1.000  C
  C1987    1.0000 0.61250  0.08380  0.25290  Biso   1.000  C
  C1988    1.0000 0.38750  0.91620  0.25290  Biso   1.000  C
  C1989    1.0000 0.41620  0.24710  0.61250  Biso   1.000  C
  C1990    1.0000 0.41620  0.75290  0.38750  Biso   1.000  C
  C1991    1.0000 0.74710  0.88750  0.58380  Biso   1.000  C
  C1992    1.0000 0.25290  0.88750  0.41620  Biso   1.000  C
  C1993    1.0000 0.58380  0.61250  0.24710  Biso   1.000  C
  C1994    1.0000 0.38750  0.58380  0.24710  Biso   1.000  C
  C1995    1.0000 0.41620  0.38750  0.24710  Biso   1.000  C
  C1996    1.0000 0.61250  0.41620  0.24710  Biso   1.000  C
  C1997    1.0000 0.58380  0.25290  0.11250  Biso   1.000  C
  C1998    1.0000 0.58380  0.38750  0.75290  Biso   1.000  C
  C1999    1.0000 0.58380  0.74710  0.88750  Biso   1.000  C
  C2000    1.0000 0.74710  0.61250  0.91620  Biso   1.000  C
  C2001    1.0000 0.41620  0.61250  0.75290  Biso   1.000  C
  C2002    1.0000 0.25290  0.61250  0.08380  Biso   1.000  C
  C2003    1.0000 0.74710  0.58380  0.11250  Biso   1.000  C
  C2004    1.0000 0.61250  0.74710  0.08380  Biso   1.000  C
  C2005    1.0000 0.38750  0.25290  0.08380  Biso   1.000  C
  C2006    1.0000 0.74710  0.41620  0.88750  Biso   1.000  C
  C2007    1.0000 0.38750  0.74710  0.91620  Biso   1.000  C
  C2008    1.0000 0.25290  0.41620  0.11250  Biso   1.000  C
  C2009    1.0000 0.25290  0.58380  0.88750  Biso   1.000  C
  C2010    1.0000 0.61250  0.25290  0.91620  Biso   1.000  C
  C2011    1.0000 0.61250  0.58380  0.75290  Biso   1.000  C
  C2012    1.0000 0.38750  0.41620  0.75290  Biso   1.000  C
  C2013    1.0000 0.41620  0.74710  0.11250  Biso   1.000  C
  C2014    1.0000 0.41620  0.25290  0.88750  Biso   1.000  C
  C2015    1.0000 0.74710  0.38750  0.08380  Biso   1.000  C
  C2016    1.0000 0.25290  0.38750  0.91620  Biso   1.000  C
  C2017    1.0000 0.91620  0.88750  0.75290  Biso   1.000  C
  C2018    1.0000 0.11250  0.91620  0.75290  Biso   1.000  C
  C2019    1.0000 0.08380  0.11250  0.75290  Biso   1.000  C
  C2020    1.0000 0.88750  0.08380  0.75290  Biso   1.000  C
  C2021    1.0000 0.91620  0.24710  0.88750  Biso   1.000  C
  C2022    1.0000 0.91620  0.11250  0.24710  Biso   1.000  C
  C2023    1.0000 0.91620  0.75290  0.11250  Biso   1.000  C
  C2024    1.0000 0.75290  0.88750  0.08380  Biso   1.000  C
  C2025    1.0000 0.08380  0.88750  0.24710  Biso   1.000  C
  C2026    1.0000 0.24710  0.88750  0.91620  Biso   1.000  C
  C2027    1.0000 0.75290  0.91620  0.88750  Biso   1.000  C
  C2028    1.0000 0.88750  0.75290  0.91620  Biso   1.000  C
  C2029    1.0000 0.11250  0.24710  0.91620  Biso   1.000  C
  C2030    1.0000 0.75290  0.08380  0.11250  Biso   1.000  C
  C2031    1.0000 0.11250  0.75290  0.08380  Biso   1.000  C
  C2032    1.0000 0.24710  0.08380  0.88750  Biso   1.000  C
  C2033    1.0000 0.24710  0.91620  0.11250  Biso   1.000  C
  C2034    1.0000 0.88750  0.24710  0.08380  Biso   1.000  C
  C2035    1.0000 0.88750  0.91620  0.24710  Biso   1.000  C
  C2036    1.0000 0.11250  0.08380  0.24710  Biso   1.000  C
  C2037    1.0000 0.08380  0.75290  0.88750  Biso   1.000  C
  C2038    1.0000 0.08380  0.24710  0.11250  Biso   1.000  C
  C2039    1.0000 0.75290  0.11250  0.91620  Biso   1.000  C
  C2040    1.0000 0.24710  0.11250  0.08380  Biso   1.000  C
  C2041    1.0000 0.91620  0.38750  0.25290  Biso   1.000  C
  C2042    1.0000 0.11250  0.41620  0.25290  Biso   1.000  C
  C2043    1.0000 0.08380  0.61250  0.25290  Biso   1.000  C
  C2044    1.0000 0.88750  0.58380  0.25290  Biso   1.000  C
  C2045    1.0000 0.91620  0.74710  0.38750  Biso   1.000  C
  C2046    1.0000 0.91620  0.61250  0.74710  Biso   1.000  C
  C2047    1.0000 0.91620  0.25290  0.61250  Biso   1.000  C
  C2048    1.0000 0.75290  0.38750  0.58380  Biso   1.000  C
  C2049    1.0000 0.08380  0.38750  0.74710  Biso   1.000  C
  C2050    1.0000 0.24710  0.38750  0.41620  Biso   1.000  C
  C2051    1.0000 0.75290  0.41620  0.38750  Biso   1.000  C
  C2052    1.0000 0.88750  0.25290  0.41620  Biso   1.000  C
  C2053    1.0000 0.11250  0.74710  0.41620  Biso   1.000  C
  C2054    1.0000 0.75290  0.58380  0.61250  Biso   1.000  C
  C2055    1.0000 0.11250  0.25290  0.58380  Biso   1.000  C
  C2056    1.0000 0.24710  0.58380  0.38750  Biso   1.000  C
  C2057    1.0000 0.24710  0.41620  0.61250  Biso   1.000  C
  C2058    1.0000 0.88750  0.74710  0.58380  Biso   1.000  C
  C2059    1.0000 0.88750  0.41620  0.74710  Biso   1.000  C
  C2060    1.0000 0.11250  0.58380  0.74710  Biso   1.000  C
  C2061    1.0000 0.08380  0.25290  0.38750  Biso   1.000  C
  C2062    1.0000 0.08380  0.74710  0.61250  Biso   1.000  C
  C2063    1.0000 0.75290  0.61250  0.41620  Biso   1.000  C
  C2064    1.0000 0.24710  0.61250  0.58380  Biso   1.000  C
  C2065    1.0000 0.41620  0.88750  0.25290  Biso   1.000  C
  C2066    1.0000 0.61250  0.91620  0.25290  Biso   1.000  C
  C2067    1.0000 0.58380  0.11250  0.25290  Biso   1.000  C
  C2068    1.0000 0.38750  0.08380  0.25290  Biso   1.000  C
  C2069    1.0000 0.41620  0.24710  0.38750  Biso   1.000  C
  C2070    1.0000 0.41620  0.11250  0.74710  Biso   1.000  C
  C2071    1.0000 0.41620  0.75290  0.61250  Biso   1.000  C
  C2072    1.0000 0.25290  0.88750  0.58380  Biso   1.000  C
  C2073    1.0000 0.58380  0.88750  0.74710  Biso   1.000  C
  C2074    1.0000 0.74710  0.88750  0.41620  Biso   1.000  C
  C2075    1.0000 0.25290  0.91620  0.38750  Biso   1.000  C
  C2076    1.0000 0.38750  0.75290  0.41620  Biso   1.000  C
  C2077    1.0000 0.61250  0.24710  0.41620  Biso   1.000  C
  C2078    1.0000 0.25290  0.08380  0.61250  Biso   1.000  C
  C2079    1.0000 0.61250  0.75290  0.58380  Biso   1.000  C
  C2080    1.0000 0.74710  0.08380  0.38750  Biso   1.000  C
  C2081    1.0000 0.74710  0.91620  0.61250  Biso   1.000  C
  C2082    1.0000 0.38750  0.24710  0.58380  Biso   1.000  C
  C2083    1.0000 0.38750  0.91620  0.74710  Biso   1.000  C
  C2084    1.0000 0.61250  0.08380  0.74710  Biso   1.000  C
  C2085    1.0000 0.58380  0.75290  0.38750  Biso   1.000  C
  C2086    1.0000 0.58380  0.24710  0.61250  Biso   1.000  C
  C2087    1.0000 0.25290  0.11250  0.41620  Biso   1.000  C
  C2088    1.0000 0.74710  0.11250  0.58380  Biso   1.000  C
  C2089    1.0000 0.41620  0.38750  0.75290  Biso   1.000  C
  C2090    1.0000 0.61250  0.41620  0.75290  Biso   1.000  C
  C2091    1.0000 0.58380  0.61250  0.75290  Biso   1.000  C
  C2092    1.0000 0.38750  0.58380  0.75290  Biso   1.000  C
  C2093    1.0000 0.41620  0.74710  0.88750  Biso   1.000  C
  C2094    1.0000 0.41620  0.61250  0.24710  Biso   1.000  C
  C2095    1.0000 0.41620  0.25290  0.11250  Biso   1.000  C
  C2096    1.0000 0.25290  0.38750  0.08380  Biso   1.000  C
  C2097    1.0000 0.58380  0.38750  0.24710  Biso   1.000  C
  C2098    1.0000 0.74710  0.38750  0.91620  Biso   1.000  C
  C2099    1.0000 0.25290  0.41620  0.88750  Biso   1.000  C
  C2100    1.0000 0.38750  0.25290  0.91620  Biso   1.000  C
  C2101    1.0000 0.61250  0.74710  0.91620  Biso   1.000  C
  C2102    1.0000 0.25290  0.58380  0.11250  Biso   1.000  C
  C2103    1.0000 0.61250  0.25290  0.08380  Biso   1.000  C
  C2104    1.0000 0.74710  0.58380  0.88750  Biso   1.000  C
  C2105    1.0000 0.74710  0.41620  0.11250  Biso   1.000  C
  C2106    1.0000 0.38750  0.74710  0.08380  Biso   1.000  C
  C2107    1.0000 0.38750  0.41620  0.24710  Biso   1.000  C
  C2108    1.0000 0.61250  0.58380  0.24710  Biso   1.000  C
  C2109    1.0000 0.58380  0.25290  0.88750  Biso   1.000  C
  C2110    1.0000 0.58380  0.74710  0.11250  Biso   1.000  C
  C2111    1.0000 0.25290  0.61250  0.91620  Biso   1.000  C
  C2112    1.0000 0.74710  0.61250  0.08380  Biso   1.000  C
  C2113    1.0000 0.07150  0.11990  0.23990  Biso   1.000  C
  C2114    1.0000 0.88010  0.07150  0.23990  Biso   1.000  C
  C2115    1.0000 0.92850  0.88010  0.23990  Biso   1.000  C
  C2116    1.0000 0.11990  0.92850  0.23990  Biso   1.000  C
  C2117    1.0000 0.07150  0.76010  0.11990  Biso   1.000  C
  C2118    1.0000 0.07150  0.88010  0.76010  Biso   1.000  C
  C2119    1.0000 0.07150  0.23990  0.88010  Biso   1.000  C
  C2120    1.0000 0.23990  0.11990  0.92850  Biso   1.000  C
  C2121    1.0000 0.92850  0.11990  0.76010  Biso   1.000  C
  C2122    1.0000 0.76010  0.11990  0.07150  Biso   1.000  C
  C2123    1.0000 0.23990  0.07150  0.11990  Biso   1.000  C
  C2124    1.0000 0.11990  0.23990  0.07150  Biso   1.000  C
  C2125    1.0000 0.88010  0.76010  0.07150  Biso   1.000  C
  C2126    1.0000 0.23990  0.92850  0.88010  Biso   1.000  C
  C2127    1.0000 0.88010  0.23990  0.92850  Biso   1.000  C
  C2128    1.0000 0.76010  0.92850  0.11990  Biso   1.000  C
  C2129    1.0000 0.76010  0.07150  0.88010  Biso   1.000  C
  C2130    1.0000 0.11990  0.76010  0.92850  Biso   1.000  C
  C2131    1.0000 0.11990  0.07150  0.76010  Biso   1.000  C
  C2132    1.0000 0.88010  0.92850  0.76010  Biso   1.000  C
  C2133    1.0000 0.92850  0.23990  0.11990  Biso   1.000  C
  C2134    1.0000 0.92850  0.76010  0.88010  Biso   1.000  C
  C2135    1.0000 0.23990  0.88010  0.07150  Biso   1.000  C
  C2136    1.0000 0.76010  0.88010  0.92850  Biso   1.000  C
  C2137    1.0000 0.07150  0.61990  0.73990  Biso   1.000  C
  C2138    1.0000 0.88010  0.57150  0.73990  Biso   1.000  C
  C2139    1.0000 0.92850  0.38010  0.73990  Biso   1.000  C
  C2140    1.0000 0.11990  0.42850  0.73990  Biso   1.000  C
  C2141    1.0000 0.07150  0.26010  0.61990  Biso   1.000  C
  C2142    1.0000 0.07150  0.38010  0.26010  Biso   1.000  C
  C2143    1.0000 0.07150  0.73990  0.38010  Biso   1.000  C
  C2144    1.0000 0.23990  0.61990  0.42850  Biso   1.000  C
  C2145    1.0000 0.92850  0.61990  0.26010  Biso   1.000  C
  C2146    1.0000 0.76010  0.61990  0.57150  Biso   1.000  C
  C2147    1.0000 0.23990  0.57150  0.61990  Biso   1.000  C
  C2148    1.0000 0.11990  0.73990  0.57150  Biso   1.000  C
  C2149    1.0000 0.88010  0.26010  0.57150  Biso   1.000  C
  C2150    1.0000 0.23990  0.42850  0.38010  Biso   1.000  C
  C2151    1.0000 0.88010  0.73990  0.42850  Biso   1.000  C
  C2152    1.0000 0.76010  0.42850  0.61990  Biso   1.000  C
  C2153    1.0000 0.76010  0.57150  0.38010  Biso   1.000  C
  C2154    1.0000 0.11990  0.26010  0.42850  Biso   1.000  C
  C2155    1.0000 0.11990  0.57150  0.26010  Biso   1.000  C
  C2156    1.0000 0.88010  0.42850  0.26010  Biso   1.000  C
  C2157    1.0000 0.92850  0.73990  0.61990  Biso   1.000  C
  C2158    1.0000 0.92850  0.26010  0.38010  Biso   1.000  C
  C2159    1.0000 0.23990  0.38010  0.57150  Biso   1.000  C
  C2160    1.0000 0.76010  0.38010  0.42850  Biso   1.000  C
  C2161    1.0000 0.57150  0.11990  0.73990  Biso   1.000  C
  C2162    1.0000 0.38010  0.07150  0.73990  Biso   1.000  C
  C2163    1.0000 0.42850  0.88010  0.73990  Biso   1.000  C
  C2164    1.0000 0.61990  0.92850  0.73990  Biso   1.000  C
  C2165    1.0000 0.57150  0.76010  0.61990  Biso   1.000  C
  C2166    1.0000 0.57150  0.88010  0.26010  Biso   1.000  C
  C2167    1.0000 0.57150  0.23990  0.38010  Biso   1.000  C
  C2168    1.0000 0.73990  0.11990  0.42850  Biso   1.000  C
  C2169    1.0000 0.42850  0.11990  0.26010  Biso   1.000  C
  C2170    1.0000 0.26010  0.11990  0.57150  Biso   1.000  C
  C2171    1.0000 0.73990  0.07150  0.61990  Biso   1.000  C
  C2172    1.0000 0.61990  0.23990  0.57150  Biso   1.000  C
  C2173    1.0000 0.38010  0.76010  0.57150  Biso   1.000  C
  C2174    1.0000 0.73990  0.92850  0.38010  Biso   1.000  C
  C2175    1.0000 0.38010  0.23990  0.42850  Biso   1.000  C
  C2176    1.0000 0.26010  0.92850  0.61990  Biso   1.000  C
  C2177    1.0000 0.26010  0.07150  0.38010  Biso   1.000  C
  C2178    1.0000 0.61990  0.76010  0.42850  Biso   1.000  C
  C2179    1.0000 0.61990  0.07150  0.26010  Biso   1.000  C
  C2180    1.0000 0.38010  0.92850  0.26010  Biso   1.000  C
  C2181    1.0000 0.42850  0.23990  0.61990  Biso   1.000  C
  C2182    1.0000 0.42850  0.76010  0.38010  Biso   1.000  C
  C2183    1.0000 0.73990  0.88010  0.57150  Biso   1.000  C
  C2184    1.0000 0.26010  0.88010  0.42850  Biso   1.000  C
  C2185    1.0000 0.57150  0.61990  0.23990  Biso   1.000  C
  C2186    1.0000 0.38010  0.57150  0.23990  Biso   1.000  C
  C2187    1.0000 0.42850  0.38010  0.23990  Biso   1.000  C
  C2188    1.0000 0.61990  0.42850  0.23990  Biso   1.000  C
  C2189    1.0000 0.57150  0.26010  0.11990  Biso   1.000  C
  C2190    1.0000 0.57150  0.38010  0.76010  Biso   1.000  C
  C2191    1.0000 0.57150  0.73990  0.88010  Biso   1.000  C
  C2192    1.0000 0.73990  0.61990  0.92850  Biso   1.000  C
  C2193    1.0000 0.42850  0.61990  0.76010  Biso   1.000  C
  C2194    1.0000 0.26010  0.61990  0.07150  Biso   1.000  C
  C2195    1.0000 0.73990  0.57150  0.11990  Biso   1.000  C
  C2196    1.0000 0.61990  0.73990  0.07150  Biso   1.000  C
  C2197    1.0000 0.38010  0.26010  0.07150  Biso   1.000  C
  C2198    1.0000 0.73990  0.42850  0.88010  Biso   1.000  C
  C2199    1.0000 0.38010  0.73990  0.92850  Biso   1.000  C
  C2200    1.0000 0.26010  0.42850  0.11990  Biso   1.000  C
  C2201    1.0000 0.26010  0.57150  0.88010  Biso   1.000  C
  C2202    1.0000 0.61990  0.26010  0.92850  Biso   1.000  C
  C2203    1.0000 0.61990  0.57150  0.76010  Biso   1.000  C
  C2204    1.0000 0.38010  0.42850  0.76010  Biso   1.000  C
  C2205    1.0000 0.42850  0.73990  0.11990  Biso   1.000  C
  C2206    1.0000 0.42850  0.26010  0.88010  Biso   1.000  C
  C2207    1.0000 0.73990  0.38010  0.07150  Biso   1.000  C
  C2208    1.0000 0.26010  0.38010  0.92850  Biso   1.000  C
  C2209    1.0000 0.92850  0.88010  0.76010  Biso   1.000  C
  C2210    1.0000 0.11990  0.92850  0.76010  Biso   1.000  C
  C2211    1.0000 0.07150  0.11990  0.76010  Biso   1.000  C
  C2212    1.0000 0.88010  0.07150  0.76010  Biso   1.000  C
  C2213    1.0000 0.92850  0.23990  0.88010  Biso   1.000  C
  C2214    1.0000 0.92850  0.11990  0.23990  Biso   1.000  C
  C2215    1.0000 0.92850  0.76010  0.11990  Biso   1.000  C
  C2216    1.0000 0.76010  0.88010  0.07150  Biso   1.000  C
  C2217    1.0000 0.07150  0.88010  0.23990  Biso   1.000  C
  C2218    1.0000 0.23990  0.88010  0.92850  Biso   1.000  C
  C2219    1.0000 0.76010  0.92850  0.88010  Biso   1.000  C
  C2220    1.0000 0.88010  0.76010  0.92850  Biso   1.000  C
  C2221    1.0000 0.11990  0.23990  0.92850  Biso   1.000  C
  C2222    1.0000 0.76010  0.07150  0.11990  Biso   1.000  C
  C2223    1.0000 0.11990  0.76010  0.07150  Biso   1.000  C
  C2224    1.0000 0.23990  0.07150  0.88010  Biso   1.000  C
  C2225    1.0000 0.23990  0.92850  0.11990  Biso   1.000  C
  C2226    1.0000 0.88010  0.23990  0.07150  Biso   1.000  C
  C2227    1.0000 0.88010  0.92850  0.23990  Biso   1.000  C
  C2228    1.0000 0.11990  0.07150  0.23990  Biso   1.000  C
  C2229    1.0000 0.07150  0.76010  0.88010  Biso   1.000  C
  C2230    1.0000 0.07150  0.23990  0.11990  Biso   1.000  C
  C2231    1.0000 0.76010  0.11990  0.92850  Biso   1.000  C
  C2232    1.0000 0.23990  0.11990  0.07150  Biso   1.000  C
  C2233    1.0000 0.92850  0.38010  0.26010  Biso   1.000  C
  C2234    1.0000 0.11990  0.42850  0.26010  Biso   1.000  C
  C2235    1.0000 0.07150  0.61990  0.26010  Biso   1.000  C
  C2236    1.0000 0.88010  0.57150  0.26010  Biso   1.000  C
  C2237    1.0000 0.92850  0.73990  0.38010  Biso   1.000  C
  C2238    1.0000 0.92850  0.61990  0.73990  Biso   1.000  C
  C2239    1.0000 0.92850  0.26010  0.61990  Biso   1.000  C
  C2240    1.0000 0.76010  0.38010  0.57150  Biso   1.000  C
  C2241    1.0000 0.07150  0.38010  0.73990  Biso   1.000  C
  C2242    1.0000 0.23990  0.38010  0.42850  Biso   1.000  C
  C2243    1.0000 0.76010  0.42850  0.38010  Biso   1.000  C
  C2244    1.0000 0.88010  0.26010  0.42850  Biso   1.000  C
  C2245    1.0000 0.11990  0.73990  0.42850  Biso   1.000  C
  C2246    1.0000 0.76010  0.57150  0.61990  Biso   1.000  C
  C2247    1.0000 0.11990  0.26010  0.57150  Biso   1.000  C
  C2248    1.0000 0.23990  0.57150  0.38010  Biso   1.000  C
  C2249    1.0000 0.23990  0.42850  0.61990  Biso   1.000  C
  C2250    1.0000 0.88010  0.73990  0.57150  Biso   1.000  C
  C2251    1.0000 0.88010  0.42850  0.73990  Biso   1.000  C
  C2252    1.0000 0.11990  0.57150  0.73990  Biso   1.000  C
  C2253    1.0000 0.07150  0.26010  0.38010  Biso   1.000  C
  C2254    1.0000 0.07150  0.73990  0.61990  Biso   1.000  C
  C2255    1.0000 0.76010  0.61990  0.42850  Biso   1.000  C
  C2256    1.0000 0.23990  0.61990  0.57150  Biso   1.000  C
  C2257    1.0000 0.42850  0.88010  0.26010  Biso   1.000  C
  C2258    1.0000 0.61990  0.92850  0.26010  Biso   1.000  C
  C2259    1.0000 0.57150  0.11990  0.26010  Biso   1.000  C
  C2260    1.0000 0.38010  0.07150  0.26010  Biso   1.000  C
  C2261    1.0000 0.42850  0.23990  0.38010  Biso   1.000  C
  C2262    1.0000 0.42850  0.11990  0.73990  Biso   1.000  C
  C2263    1.0000 0.42850  0.76010  0.61990  Biso   1.000  C
  C2264    1.0000 0.26010  0.88010  0.57150  Biso   1.000  C
  C2265    1.0000 0.57150  0.88010  0.73990  Biso   1.000  C
  C2266    1.0000 0.73990  0.88010  0.42850  Biso   1.000  C
  C2267    1.0000 0.26010  0.92850  0.38010  Biso   1.000  C
  C2268    1.0000 0.38010  0.76010  0.42850  Biso   1.000  C
  C2269    1.0000 0.61990  0.23990  0.42850  Biso   1.000  C
  C2270    1.0000 0.26010  0.07150  0.61990  Biso   1.000  C
  C2271    1.0000 0.61990  0.76010  0.57150  Biso   1.000  C
  C2272    1.0000 0.73990  0.07150  0.38010  Biso   1.000  C
  C2273    1.0000 0.73990  0.92850  0.61990  Biso   1.000  C
  C2274    1.0000 0.38010  0.23990  0.57150  Biso   1.000  C
  C2275    1.0000 0.38010  0.92850  0.73990  Biso   1.000  C
  C2276    1.0000 0.61990  0.07150  0.73990  Biso   1.000  C
  C2277    1.0000 0.57150  0.76010  0.38010  Biso   1.000  C
  C2278    1.0000 0.57150  0.23990  0.61990  Biso   1.000  C
  C2279    1.0000 0.26010  0.11990  0.42850  Biso   1.000  C
  C2280    1.0000 0.73990  0.11990  0.57150  Biso   1.000  C
  C2281    1.0000 0.42850  0.38010  0.76010  Biso   1.000  C
  C2282    1.0000 0.61990  0.42850  0.76010  Biso   1.000  C
  C2283    1.0000 0.57150  0.61990  0.76010  Biso   1.000  C
  C2284    1.0000 0.38010  0.57150  0.76010  Biso   1.000  C
  C2285    1.0000 0.42850  0.73990  0.88010  Biso   1.000  C
  C2286    1.0000 0.42850  0.61990  0.23990  Biso   1.000  C
  C2287    1.0000 0.42850  0.26010  0.11990  Biso   1.000  C
  C2288    1.0000 0.26010  0.38010  0.07150  Biso   1.000  C
  C2289    1.0000 0.57150  0.38010  0.23990  Biso   1.000  C
  C2290    1.0000 0.73990  0.38010  0.92850  Biso   1.000  C
  C2291    1.0000 0.26010  0.42850  0.88010  Biso   1.000  C
  C2292    1.0000 0.38010  0.26010  0.92850  Biso   1.000  C
  C2293    1.0000 0.61990  0.73990  0.92850  Biso   1.000  C
  C2294    1.0000 0.26010  0.57150  0.11990  Biso   1.000  C
  C2295    1.0000 0.61990  0.26010  0.07150  Biso   1.000  C
  C2296    1.0000 0.73990  0.57150  0.88010  Biso   1.000  C
  C2297    1.0000 0.73990  0.42850  0.11990  Biso   1.000  C
  C2298    1.0000 0.38010  0.73990  0.07150  Biso   1.000  C
  C2299    1.0000 0.38010  0.42850  0.23990  Biso   1.000  C
  C2300    1.0000 0.61990  0.57150  0.23990  Biso   1.000  C
  C2301    1.0000 0.57150  0.26010  0.88010  Biso   1.000  C
  C2302    1.0000 0.57150  0.73990  0.11990  Biso   1.000  C
  C2303    1.0000 0.26010  0.61990  0.92850  Biso   1.000  C
  C2304    1.0000 0.73990  0.61990  0.07150  Biso   1.000  C
  C2305    1.0000 0.09110  0.11980  0.26820  Biso   1.000  C
  C2306    1.0000 0.88020  0.09110  0.26820  Biso   1.000  C
  C2307    1.0000 0.90890  0.88020  0.26820  Biso   1.000  C
  C2308    1.0000 0.11980  0.90890  0.26820  Biso   1.000  C
  C2309    1.0000 0.09110  0.73180  0.11980  Biso   1.000  C
  C2310    1.0000 0.09110  0.88020  0.73180  Biso   1.000  C
  C2311    1.0000 0.09110  0.26820  0.88020  Biso   1.000  C
  C2312    1.0000 0.26820  0.11980  0.90890  Biso   1.000  C
  C2313    1.0000 0.90890  0.11980  0.73180  Biso   1.000  C
  C2314    1.0000 0.73180  0.11980  0.09110  Biso   1.000  C
  C2315    1.0000 0.26820  0.09110  0.11980  Biso   1.000  C
  C2316    1.0000 0.11980  0.26820  0.09110  Biso   1.000  C
  C2317    1.0000 0.88020  0.73180  0.09110  Biso   1.000  C
  C2318    1.0000 0.26820  0.90890  0.88020  Biso   1.000  C
  C2319    1.0000 0.88020  0.26820  0.90890  Biso   1.000  C
  C2320    1.0000 0.73180  0.90890  0.11980  Biso   1.000  C
  C2321    1.0000 0.73180  0.09110  0.88020  Biso   1.000  C
  C2322    1.0000 0.11980  0.73180  0.90890  Biso   1.000  C
  C2323    1.0000 0.11980  0.09110  0.73180  Biso   1.000  C
  C2324    1.0000 0.88020  0.90890  0.73180  Biso   1.000  C
  C2325    1.0000 0.90890  0.26820  0.11980  Biso   1.000  C
  C2326    1.0000 0.90890  0.73180  0.88020  Biso   1.000  C
  C2327    1.0000 0.26820  0.88020  0.09110  Biso   1.000  C
  C2328    1.0000 0.73180  0.88020  0.90890  Biso   1.000  C
  C2329    1.0000 0.09110  0.61980  0.76820  Biso   1.000  C
  C2330    1.0000 0.88020  0.59110  0.76820  Biso   1.000  C
  C2331    1.0000 0.90890  0.38020  0.76820  Biso   1.000  C
  C2332    1.0000 0.11980  0.40890  0.76820  Biso   1.000  C
  C2333    1.0000 0.09110  0.23180  0.61980  Biso   1.000  C
  C2334    1.0000 0.09110  0.38020  0.23180  Biso   1.000  C
  C2335    1.0000 0.09110  0.76820  0.38020  Biso   1.000  C
  C2336    1.0000 0.26820  0.61980  0.40890  Biso   1.000  C
  C2337    1.0000 0.90890  0.61980  0.23180  Biso   1.000  C
  C2338    1.0000 0.73180  0.61980  0.59110  Biso   1.000  C
  C2339    1.0000 0.26820  0.59110  0.61980  Biso   1.000  C
  C2340    1.0000 0.11980  0.76820  0.59110  Biso   1.000  C
  C2341    1.0000 0.88020  0.23180  0.59110  Biso   1.000  C
  C2342    1.0000 0.26820  0.40890  0.38020  Biso   1.000  C
  C2343    1.0000 0.88020  0.76820  0.40890  Biso   1.000  C
  C2344    1.0000 0.73180  0.40890  0.61980  Biso   1.000  C
  C2345    1.0000 0.73180  0.59110  0.38020  Biso   1.000  C
  C2346    1.0000 0.11980  0.23180  0.40890  Biso   1.000  C
  C2347    1.0000 0.11980  0.59110  0.23180  Biso   1.000  C
  C2348    1.0000 0.88020  0.40890  0.23180  Biso   1.000  C
  C2349    1.0000 0.90890  0.76820  0.61980  Biso   1.000  C
  C2350    1.0000 0.90890  0.23180  0.38020  Biso   1.000  C
  C2351    1.0000 0.26820  0.38020  0.59110  Biso   1.000  C
  C2352    1.0000 0.73180  0.38020  0.40890  Biso   1.000  C
  C2353    1.0000 0.59110  0.11980  0.76820  Biso   1.000  C
  C2354    1.0000 0.38020  0.09110  0.76820  Biso   1.000  C
  C2355    1.0000 0.40890  0.88020  0.76820  Biso   1.000  C
  C2356    1.0000 0.61980  0.90890  0.76820  Biso   1.000  C
  C2357    1.0000 0.59110  0.73180  0.61980  Biso   1.000  C
  C2358    1.0000 0.59110  0.88020  0.23180  Biso   1.000  C
  C2359    1.0000 0.59110  0.26820  0.38020  Biso   1.000  C
  C2360    1.0000 0.76820  0.11980  0.40890  Biso   1.000  C
  C2361    1.0000 0.40890  0.11980  0.23180  Biso   1.000  C
  C2362    1.0000 0.23180  0.11980  0.59110  Biso   1.000  C
  C2363    1.0000 0.76820  0.09110  0.61980  Biso   1.000  C
  C2364    1.0000 0.61980  0.26820  0.59110  Biso   1.000  C
  C2365    1.0000 0.38020  0.73180  0.59110  Biso   1.000  C
  C2366    1.0000 0.76820  0.90890  0.38020  Biso   1.000  C
  C2367    1.0000 0.38020  0.26820  0.40890  Biso   1.000  C
  C2368    1.0000 0.23180  0.90890  0.61980  Biso   1.000  C
  C2369    1.0000 0.23180  0.09110  0.38020  Biso   1.000  C
  C2370    1.0000 0.61980  0.73180  0.40890  Biso   1.000  C
  C2371    1.0000 0.61980  0.09110  0.23180  Biso   1.000  C
  C2372    1.0000 0.38020  0.90890  0.23180  Biso   1.000  C
  C2373    1.0000 0.40890  0.26820  0.61980  Biso   1.000  C
  C2374    1.0000 0.40890  0.73180  0.38020  Biso   1.000  C
  C2375    1.0000 0.76820  0.88020  0.59110  Biso   1.000  C
  C2376    1.0000 0.23180  0.88020  0.40890  Biso   1.000  C
  C2377    1.0000 0.59110  0.61980  0.26820  Biso   1.000  C
  C2378    1.0000 0.38020  0.59110  0.26820  Biso   1.000  C
  C2379    1.0000 0.40890  0.38020  0.26820  Biso   1.000  C
  C2380    1.0000 0.61980  0.40890  0.26820  Biso   1.000  C
  C2381    1.0000 0.59110  0.23180  0.11980  Biso   1.000  C
  C2382    1.0000 0.59110  0.38020  0.73180  Biso   1.000  C
  C2383    1.0000 0.59110  0.76820  0.88020  Biso   1.000  C
  C2384    1.0000 0.76820  0.61980  0.90890  Biso   1.000  C
  C2385    1.0000 0.40890  0.61980  0.73180  Biso   1.000  C
  C2386    1.0000 0.23180  0.61980  0.09110  Biso   1.000  C
  C2387    1.0000 0.76820  0.59110  0.11980  Biso   1.000  C
  C2388    1.0000 0.61980  0.76820  0.09110  Biso   1.000  C
  C2389    1.0000 0.38020  0.23180  0.09110  Biso   1.000  C
  C2390    1.0000 0.76820  0.40890  0.88020  Biso   1.000  C
  C2391    1.0000 0.38020  0.76820  0.90890  Biso   1.000  C
  C2392    1.0000 0.23180  0.40890  0.11980  Biso   1.000  C
  C2393    1.0000 0.23180  0.59110  0.88020  Biso   1.000  C
  C2394    1.0000 0.61980  0.23180  0.90890  Biso   1.000  C
  C2395    1.0000 0.61980  0.59110  0.73180  Biso   1.000  C
  C2396    1.0000 0.38020  0.40890  0.73180  Biso   1.000  C
  C2397    1.0000 0.40890  0.76820  0.11980  Biso   1.000  C
  C2398    1.0000 0.40890  0.23180  0.88020  Biso   1.000  C
  C2399    1.0000 0.76820  0.38020  0.09110  Biso   1.000  C
  C2400    1.0000 0.23180  0.38020  0.90890  Biso   1.000  C
  C2401    1.0000 0.90890  0.88020  0.73180  Biso   1.000  C
  C2402    1.0000 0.11980  0.90890  0.73180  Biso   1.000  C
  C2403    1.0000 0.09110  0.11980  0.73180  Biso   1.000  C
  C2404    1.0000 0.88020  0.09110  0.73180  Biso   1.000  C
  C2405    1.0000 0.90890  0.26820  0.88020  Biso   1.000  C
  C2406    1.0000 0.90890  0.11980  0.26820  Biso   1.000  C
  C2407    1.0000 0.90890  0.73180  0.11980  Biso   1.000  C
  C2408    1.0000 0.73180  0.88020  0.09110  Biso   1.000  C
  C2409    1.0000 0.09110  0.88020  0.26820  Biso   1.000  C
  C2410    1.0000 0.26820  0.88020  0.90890  Biso   1.000  C
  C2411    1.0000 0.73180  0.90890  0.88020  Biso   1.000  C
  C2412    1.0000 0.88020  0.73180  0.90890  Biso   1.000  C
  C2413    1.0000 0.11980  0.26820  0.90890  Biso   1.000  C
  C2414    1.0000 0.73180  0.09110  0.11980  Biso   1.000  C
  C2415    1.0000 0.11980  0.73180  0.09110  Biso   1.000  C
  C2416    1.0000 0.26820  0.09110  0.88020  Biso   1.000  C
  C2417    1.0000 0.26820  0.90890  0.11980  Biso   1.000  C
  C2418    1.0000 0.88020  0.26820  0.09110  Biso   1.000  C
  C2419    1.0000 0.88020  0.90890  0.26820  Biso   1.000  C
  C2420    1.0000 0.11980  0.09110  0.26820  Biso   1.000  C
  C2421    1.0000 0.09110  0.73180  0.88020  Biso   1.000  C
  C2422    1.0000 0.09110  0.26820  0.11980  Biso   1.000  C
  C2423    1.0000 0.73180  0.11980  0.90890  Biso   1.000  C
  C2424    1.0000 0.26820  0.11980  0.09110  Biso   1.000  C
  C2425    1.0000 0.90890  0.38020  0.23180  Biso   1.000  C
  C2426    1.0000 0.11980  0.40890  0.23180  Biso   1.000  C
  C2427    1.0000 0.09110  0.61980  0.23180  Biso   1.000  C
  C2428    1.0000 0.88020  0.59110  0.23180  Biso   1.000  C
  C2429    1.0000 0.90890  0.76820  0.38020  Biso   1.000  C
  C2430    1.0000 0.90890  0.61980  0.76820  Biso   1.000  C
  C2431    1.0000 0.90890  0.23180  0.61980  Biso   1.000  C
  C2432    1.0000 0.73180  0.38020  0.59110  Biso   1.000  C
  C2433    1.0000 0.09110  0.38020  0.76820  Biso   1.000  C
  C2434    1.0000 0.26820  0.38020  0.40890  Biso   1.000  C
  C2435    1.0000 0.73180  0.40890  0.38020  Biso   1.000  C
  C2436    1.0000 0.88020  0.23180  0.40890  Biso   1.000  C
  C2437    1.0000 0.11980  0.76820  0.40890  Biso   1.000  C
  C2438    1.0000 0.73180  0.59110  0.61980  Biso   1.000  C
  C2439    1.0000 0.11980  0.23180  0.59110  Biso   1.000  C
  C2440    1.0000 0.26820  0.59110  0.38020  Biso   1.000  C
  C2441    1.0000 0.26820  0.40890  0.61980  Biso   1.000  C
  C2442    1.0000 0.88020  0.76820  0.59110  Biso   1.000  C
  C2443    1.0000 0.88020  0.40890  0.76820  Biso   1.000  C
  C2444    1.0000 0.11980  0.59110  0.76820  Biso   1.000  C
  C2445    1.0000 0.09110  0.23180  0.38020  Biso   1.000  C
  C2446    1.0000 0.09110  0.76820  0.61980  Biso   1.000  C
  C2447    1.0000 0.73180  0.61980  0.40890  Biso   1.000  C
  C2448    1.0000 0.26820  0.61980  0.59110  Biso   1.000  C
  C2449    1.0000 0.40890  0.88020  0.23180  Biso   1.000  C
  C2450    1.0000 0.61980  0.90890  0.23180  Biso   1.000  C
  C2451    1.0000 0.59110  0.11980  0.23180  Biso   1.000  C
  C2452    1.0000 0.38020  0.09110  0.23180  Biso   1.000  C
  C2453    1.0000 0.40890  0.26820  0.38020  Biso   1.000  C
  C2454    1.0000 0.40890  0.11980  0.76820  Biso   1.000  C
  C2455    1.0000 0.40890  0.73180  0.61980  Biso   1.000  C
  C2456    1.0000 0.23180  0.88020  0.59110  Biso   1.000  C
  C2457    1.0000 0.59110  0.88020  0.76820  Biso   1.000  C
  C2458    1.0000 0.76820  0.88020  0.40890  Biso   1.000  C
  C2459    1.0000 0.23180  0.90890  0.38020  Biso   1.000  C
  C2460    1.0000 0.38020  0.73180  0.40890  Biso   1.000  C
  C2461    1.0000 0.61980  0.26820  0.40890  Biso   1.000  C
  C2462    1.0000 0.23180  0.09110  0.61980  Biso   1.000  C
  C2463    1.0000 0.61980  0.73180  0.59110  Biso   1.000  C
  C2464    1.0000 0.76820  0.09110  0.38020  Biso   1.000  C
  C2465    1.0000 0.76820  0.90890  0.61980  Biso   1.000  C
  C2466    1.0000 0.38020  0.26820  0.59110  Biso   1.000  C
  C2467    1.0000 0.38020  0.90890  0.76820  Biso   1.000  C
  C2468    1.0000 0.61980  0.09110  0.76820  Biso   1.000  C
  C2469    1.0000 0.59110  0.73180  0.38020  Biso   1.000  C
  C2470    1.0000 0.59110  0.26820  0.61980  Biso   1.000  C
  C2471    1.0000 0.23180  0.11980  0.40890  Biso   1.000  C
  C2472    1.0000 0.76820  0.11980  0.59110  Biso   1.000  C
  C2473    1.0000 0.40890  0.38020  0.73180  Biso   1.000  C
  C2474    1.0000 0.61980  0.40890  0.73180  Biso   1.000  C
  C2475    1.0000 0.59110  0.61980  0.73180  Biso   1.000  C
  C2476    1.0000 0.38020  0.59110  0.73180  Biso   1.000  C
  C2477    1.0000 0.40890  0.76820  0.88020  Biso   1.000  C
  C2478    1.0000 0.40890  0.61980  0.26820  Biso   1.000  C
  C2479    1.0000 0.40890  0.23180  0.11980  Biso   1.000  C
  C2480    1.0000 0.23180  0.38020  0.09110  Biso   1.000  C
  C2481    1.0000 0.59110  0.38020  0.26820  Biso   1.000  C
  C2482    1.0000 0.76820  0.38020  0.90890  Biso   1.000  C
  C2483    1.0000 0.23180  0.40890  0.88020  Biso   1.000  C
  C2484    1.0000 0.38020  0.23180  0.90890  Biso   1.000  C
  C2485    1.0000 0.61980  0.76820  0.90890  Biso   1.000  C
  C2486    1.0000 0.23180  0.59110  0.11980  Biso   1.000  C
  C2487    1.0000 0.61980  0.23180  0.09110  Biso   1.000  C
  C2488    1.0000 0.76820  0.59110  0.88020  Biso   1.000  C
  C2489    1.0000 0.76820  0.40890  0.11980  Biso   1.000  C
  C2490    1.0000 0.38020  0.76820  0.09110  Biso   1.000  C
  C2491    1.0000 0.38020  0.40890  0.26820  Biso   1.000  C
  C2492    1.0000 0.61980  0.59110  0.26820  Biso   1.000  C
  C2493    1.0000 0.59110  0.23180  0.88020  Biso   1.000  C
  C2494    1.0000 0.59110  0.76820  0.11980  Biso   1.000  C
  C2495    1.0000 0.23180  0.61980  0.90890  Biso   1.000  C
  C2496    1.0000 0.76820  0.61980  0.09110  Biso   1.000  C
  C2497    1.0000 0.08370  0.13210  0.27540  Biso   1.000  C
  C2498    1.0000 0.86790  0.08370  0.27540  Biso   1.000  C
  C2499    1.0000 0.91630  0.86790  0.27540  Biso   1.000  C
  C2500    1.0000 0.13210  0.91630  0.27540  Biso   1.000  C
  C2501    1.0000 0.08370  0.72460  0.13210  Biso   1.000  C
  C2502    1.0000 0.08370  0.86790  0.72460  Biso   1.000  C
  C2503    1.0000 0.08370  0.27540  0.86790  Biso   1.000  C
  C2504    1.0000 0.27540  0.13210  0.91630  Biso   1.000  C
  C2505    1.0000 0.91630  0.13210  0.72460  Biso   1.000  C
  C2506    1.0000 0.72460  0.13210  0.08370  Biso   1.000  C
  C2507    1.0000 0.27540  0.08370  0.13210  Biso   1.000  C
  C2508    1.0000 0.13210  0.27540  0.08370  Biso   1.000  C
  C2509    1.0000 0.86790  0.72460  0.08370  Biso   1.000  C
  C2510    1.0000 0.27540  0.91630  0.86790  Biso   1.000  C
  C2511    1.0000 0.86790  0.27540  0.91630  Biso   1.000  C
  C2512    1.0000 0.72460  0.91630  0.13210  Biso   1.000  C
  C2513    1.0000 0.72460  0.08370  0.86790  Biso   1.000  C
  C2514    1.0000 0.13210  0.72460  0.91630  Biso   1.000  C
  C2515    1.0000 0.13210  0.08370  0.72460  Biso   1.000  C
  C2516    1.0000 0.86790  0.91630  0.72460  Biso   1.000  C
  C2517    1.0000 0.91630  0.27540  0.13210  Biso   1.000  C
  C2518    1.0000 0.91630  0.72460  0.86790  Biso   1.000  C
  C2519    1.0000 0.27540  0.86790  0.08370  Biso   1.000  C
  C2520    1.0000 0.72460  0.86790  0.91630  Biso   1.000  C
  C2521    1.0000 0.08370  0.63210  0.77540  Biso   1.000  C
  C2522    1.0000 0.86790  0.58370  0.77540  Biso   1.000  C
  C2523    1.0000 0.91630  0.36790  0.77540  Biso   1.000  C
  C2524    1.0000 0.13210  0.41630  0.77540  Biso   1.000  C
  C2525    1.0000 0.08370  0.22460  0.63210  Biso   1.000  C
  C2526    1.0000 0.08370  0.36790  0.22460  Biso   1.000  C
  C2527    1.0000 0.08370  0.77540  0.36790  Biso   1.000  C
  C2528    1.0000 0.27540  0.63210  0.41630  Biso   1.000  C
  C2529    1.0000 0.91630  0.63210  0.22460  Biso   1.000  C
  C2530    1.0000 0.72460  0.63210  0.58370  Biso   1.000  C
  C2531    1.0000 0.27540  0.58370  0.63210  Biso   1.000  C
  C2532    1.0000 0.13210  0.77540  0.58370  Biso   1.000  C
  C2533    1.0000 0.86790  0.22460  0.58370  Biso   1.000  C
  C2534    1.0000 0.27540  0.41630  0.36790  Biso   1.000  C
  C2535    1.0000 0.86790  0.77540  0.41630  Biso   1.000  C
  C2536    1.0000 0.72460  0.41630  0.63210  Biso   1.000  C
  C2537    1.0000 0.72460  0.58370  0.36790  Biso   1.000  C
  C2538    1.0000 0.13210  0.22460  0.41630  Biso   1.000  C
  C2539    1.0000 0.13210  0.58370  0.22460  Biso   1.000  C
  C2540    1.0000 0.86790  0.41630  0.22460  Biso   1.000  C
  C2541    1.0000 0.91630  0.77540  0.63210  Biso   1.000  C
  C2542    1.0000 0.91630  0.22460  0.36790  Biso   1.000  C
  C2543    1.0000 0.27540  0.36790  0.58370  Biso   1.000  C
  C2544    1.0000 0.72460  0.36790  0.41630  Biso   1.000  C
  C2545    1.0000 0.58370  0.13210  0.77540  Biso   1.000  C
  C2546    1.0000 0.36790  0.08370  0.77540  Biso   1.000  C
  C2547    1.0000 0.41630  0.86790  0.77540  Biso   1.000  C
  C2548    1.0000 0.63210  0.91630  0.77540  Biso   1.000  C
  C2549    1.0000 0.58370  0.72460  0.63210  Biso   1.000  C
  C2550    1.0000 0.58370  0.86790  0.22460  Biso   1.000  C
  C2551    1.0000 0.58370  0.27540  0.36790  Biso   1.000  C
  C2552    1.0000 0.77540  0.13210  0.41630  Biso   1.000  C
  C2553    1.0000 0.41630  0.13210  0.22460  Biso   1.000  C
  C2554    1.0000 0.22460  0.13210  0.58370  Biso   1.000  C
  C2555    1.0000 0.77540  0.08370  0.63210  Biso   1.000  C
  C2556    1.0000 0.63210  0.27540  0.58370  Biso   1.000  C
  C2557    1.0000 0.36790  0.72460  0.58370  Biso   1.000  C
  C2558    1.0000 0.77540  0.91630  0.36790  Biso   1.000  C
  C2559    1.0000 0.36790  0.27540  0.41630  Biso   1.000  C
  C2560    1.0000 0.22460  0.91630  0.63210  Biso   1.000  C
  C2561    1.0000 0.22460  0.08370  0.36790  Biso   1.000  C
  C2562    1.0000 0.63210  0.72460  0.41630  Biso   1.000  C
  C2563    1.0000 0.63210  0.08370  0.22460  Biso   1.000  C
  C2564    1.0000 0.36790  0.91630  0.22460  Biso   1.000  C
  C2565    1.0000 0.41630  0.27540  0.63210  Biso   1.000  C
  C2566    1.0000 0.41630  0.72460  0.36790  Biso   1.000  C
  C2567    1.0000 0.77540  0.86790  0.58370  Biso   1.000  C
  C2568    1.0000 0.22460  0.86790  0.41630  Biso   1.000  C
  C2569    1.0000 0.58370  0.63210  0.27540  Biso   1.000  C
  C2570    1.0000 0.36790  0.58370  0.27540  Biso   1.000  C
  C2571    1.0000 0.41630  0.36790  0.27540  Biso   1.000  C
  C2572    1.0000 0.63210  0.41630  0.27540  Biso   1.000  C
  C2573    1.0000 0.58370  0.22460  0.13210  Biso   1.000  C
  C2574    1.0000 0.58370  0.36790  0.72460  Biso   1.000  C
  C2575    1.0000 0.58370  0.77540  0.86790  Biso   1.000  C
  C2576    1.0000 0.77540  0.63210  0.91630  Biso   1.000  C
  C2577    1.0000 0.41630  0.63210  0.72460  Biso   1.000  C
  C2578    1.0000 0.22460  0.63210  0.08370  Biso   1.000  C
  C2579    1.0000 0.77540  0.58370  0.13210  Biso   1.000  C
  C2580    1.0000 0.63210  0.77540  0.08370  Biso   1.000  C
  C2581    1.0000 0.36790  0.22460  0.08370  Biso   1.000  C
  C2582    1.0000 0.77540  0.41630  0.86790  Biso   1.000  C
  C2583    1.0000 0.36790  0.77540  0.91630  Biso   1.000  C
  C2584    1.0000 0.22460  0.41630  0.13210  Biso   1.000  C
  C2585    1.0000 0.22460  0.58370  0.86790  Biso   1.000  C
  C2586    1.0000 0.63210  0.22460  0.91630  Biso   1.000  C
  C2587    1.0000 0.63210  0.58370  0.72460  Biso   1.000  C
  C2588    1.0000 0.36790  0.41630  0.72460  Biso   1.000  C
  C2589    1.0000 0.41630  0.77540  0.13210  Biso   1.000  C
  C2590    1.0000 0.41630  0.22460  0.86790  Biso   1.000  C
  C2591    1.0000 0.77540  0.36790  0.08370  Biso   1.000  C
  C2592    1.0000 0.22460  0.36790  0.91630  Biso   1.000  C
  C2593    1.0000 0.91630  0.86790  0.72460  Biso   1.000  C
  C2594    1.0000 0.13210  0.91630  0.72460  Biso   1.000  C
  C2595    1.0000 0.08370  0.13210  0.72460  Biso   1.000  C
  C2596    1.0000 0.86790  0.08370  0.72460  Biso   1.000  C
  C2597    1.0000 0.91630  0.27540  0.86790  Biso   1.000  C
  C2598    1.0000 0.91630  0.13210  0.27540  Biso   1.000  C
  C2599    1.0000 0.91630  0.72460  0.13210  Biso   1.000  C
  C2600    1.0000 0.72460  0.86790  0.08370  Biso   1.000  C
  C2601    1.0000 0.08370  0.86790  0.27540  Biso   1.000  C
  C2602    1.0000 0.27540  0.86790  0.91630  Biso   1.000  C
  C2603    1.0000 0.72460  0.91630  0.86790  Biso   1.000  C
  C2604    1.0000 0.86790  0.72460  0.91630  Biso   1.000  C
  C2605    1.0000 0.13210  0.27540  0.91630  Biso   1.000  C
  C2606    1.0000 0.72460  0.08370  0.13210  Biso   1.000  C
  C2607    1.0000 0.13210  0.72460  0.08370  Biso   1.000  C
  C2608    1.0000 0.27540  0.08370  0.86790  Biso   1.000  C
  C2609    1.0000 0.27540  0.91630  0.13210  Biso   1.000  C
  C2610    1.0000 0.86790  0.27540  0.08370  Biso   1.000  C
  C2611    1.0000 0.86790  0.91630  0.27540  Biso   1.000  C
  C2612    1.0000 0.13210  0.08370  0.27540  Biso   1.000  C
  C2613    1.0000 0.08370  0.72460  0.86790  Biso   1.000  C
  C2614    1.0000 0.08370  0.27540  0.13210  Biso   1.000  C
  C2615    1.0000 0.72460  0.13210  0.91630  Biso   1.000  C
  C2616    1.0000 0.27540  0.13210  0.08370  Biso   1.000  C
  C2617    1.0000 0.91630  0.36790  0.22460  Biso   1.000  C
  C2618    1.0000 0.13210  0.41630  0.22460  Biso   1.000  C
  C2619    1.0000 0.08370  0.63210  0.22460  Biso   1.000  C
  C2620    1.0000 0.86790  0.58370  0.22460  Biso   1.000  C
  C2621    1.0000 0.91630  0.77540  0.36790  Biso   1.000  C
  C2622    1.0000 0.91630  0.63210  0.77540  Biso   1.000  C
  C2623    1.0000 0.91630  0.22460  0.63210  Biso   1.000  C
  C2624    1.0000 0.72460  0.36790  0.58370  Biso   1.000  C
  C2625    1.0000 0.08370  0.36790  0.77540  Biso   1.000  C
  C2626    1.0000 0.27540  0.36790  0.41630  Biso   1.000  C
  C2627    1.0000 0.72460  0.41630  0.36790  Biso   1.000  C
  C2628    1.0000 0.86790  0.22460  0.41630  Biso   1.000  C
  C2629    1.0000 0.13210  0.77540  0.41630  Biso   1.000  C
  C2630    1.0000 0.72460  0.58370  0.63210  Biso   1.000  C
  C2631    1.0000 0.13210  0.22460  0.58370  Biso   1.000  C
  C2632    1.0000 0.27540  0.58370  0.36790  Biso   1.000  C
  C2633    1.0000 0.27540  0.41630  0.63210  Biso   1.000  C
  C2634    1.0000 0.86790  0.77540  0.58370  Biso   1.000  C
  C2635    1.0000 0.86790  0.41630  0.77540  Biso   1.000  C
  C2636    1.0000 0.13210  0.58370  0.77540  Biso   1.000  C
  C2637    1.0000 0.08370  0.22460  0.36790  Biso   1.000  C
  C2638    1.0000 0.08370  0.77540  0.63210  Biso   1.000  C
  C2639    1.0000 0.72460  0.63210  0.41630  Biso   1.000  C
  C2640    1.0000 0.27540  0.63210  0.58370  Biso   1.000  C
  C2641    1.0000 0.41630  0.86790  0.22460  Biso   1.000  C
  C2642    1.0000 0.63210  0.91630  0.22460  Biso   1.000  C
  C2643    1.0000 0.58370  0.13210  0.22460  Biso   1.000  C
  C2644    1.0000 0.36790  0.08370  0.22460  Biso   1.000  C
  C2645    1.0000 0.41630  0.27540  0.36790  Biso   1.000  C
  C2646    1.0000 0.41630  0.13210  0.77540  Biso   1.000  C
  C2647    1.0000 0.41630  0.72460  0.63210  Biso   1.000  C
  C2648    1.0000 0.22460  0.86790  0.58370  Biso   1.000  C
  C2649    1.0000 0.58370  0.86790  0.77540  Biso   1.000  C
  C2650    1.0000 0.77540  0.86790  0.41630  Biso   1.000  C
  C2651    1.0000 0.22460  0.91630  0.36790  Biso   1.000  C
  C2652    1.0000 0.36790  0.72460  0.41630  Biso   1.000  C
  C2653    1.0000 0.63210  0.27540  0.41630  Biso   1.000  C
  C2654    1.0000 0.22460  0.08370  0.63210  Biso   1.000  C
  C2655    1.0000 0.63210  0.72460  0.58370  Biso   1.000  C
  C2656    1.0000 0.77540  0.08370  0.36790  Biso   1.000  C
  C2657    1.0000 0.77540  0.91630  0.63210  Biso   1.000  C
  C2658    1.0000 0.36790  0.27540  0.58370  Biso   1.000  C
  C2659    1.0000 0.36790  0.91630  0.77540  Biso   1.000  C
  C2660    1.0000 0.63210  0.08370  0.77540  Biso   1.000  C
  C2661    1.0000 0.58370  0.72460  0.36790  Biso   1.000  C
  C2662    1.0000 0.58370  0.27540  0.63210  Biso   1.000  C
  C2663    1.0000 0.22460  0.13210  0.41630  Biso   1.000  C
  C2664    1.0000 0.77540  0.13210  0.58370  Biso   1.000  C
  C2665    1.0000 0.41630  0.36790  0.72460  Biso   1.000  C
  C2666    1.0000 0.63210  0.41630  0.72460  Biso   1.000  C
  C2667    1.0000 0.58370  0.63210  0.72460  Biso   1.000  C
  C2668    1.0000 0.36790  0.58370  0.72460  Biso   1.000  C
  C2669    1.0000 0.41630  0.77540  0.86790  Biso   1.000  C
  C2670    1.0000 0.41630  0.63210  0.27540  Biso   1.000  C
  C2671    1.0000 0.41630  0.22460  0.13210  Biso   1.000  C
  C2672    1.0000 0.22460  0.36790  0.08370  Biso   1.000  C
  C2673    1.0000 0.58370  0.36790  0.27540  Biso   1.000  C
  C2674    1.0000 0.77540  0.36790  0.91630  Biso   1.000  C
  C2675    1.0000 0.22460  0.41630  0.86790  Biso   1.000  C
  C2676    1.0000 0.36790  0.22460  0.91630  Biso   1.000  C
  C2677    1.0000 0.63210  0.77540  0.91630  Biso   1.000  C
  C2678    1.0000 0.22460  0.58370  0.13210  Biso   1.000  C
  C2679    1.0000 0.63210  0.22460  0.08370  Biso   1.000  C
  C2680    1.0000 0.77540  0.58370  0.86790  Biso   1.000  C
  C2681    1.0000 0.77540  0.41630  0.13210  Biso   1.000  C
  C2682    1.0000 0.36790  0.77540  0.08370  Biso   1.000  C
  C2683    1.0000 0.36790  0.41630  0.27540  Biso   1.000  C
  C2684    1.0000 0.63210  0.58370  0.27540  Biso   1.000  C
  C2685    1.0000 0.58370  0.22460  0.86790  Biso   1.000  C
  C2686    1.0000 0.58370  0.77540  0.13210  Biso   1.000  C
  C2687    1.0000 0.22460  0.63210  0.91630  Biso   1.000  C
  C2688    1.0000 0.77540  0.63210  0.08370  Biso   1.000  C
  C2689    1.0000 0.10910  0.10910  0.27890  Biso   1.000  C
  C2690    1.0000 0.89090  0.10910  0.27890  Biso   1.000  C
  C2691    1.0000 0.89090  0.89090  0.27890  Biso   1.000  C
  C2692    1.0000 0.10910  0.89090  0.27890  Biso   1.000  C
  C2693    1.0000 0.10910  0.72110  0.10910  Biso   1.000  C
  C2694    1.0000 0.10910  0.89090  0.72110  Biso   1.000  C
  C2695    1.0000 0.10910  0.27890  0.89090  Biso   1.000  C
  C2696    1.0000 0.27890  0.10910  0.89090  Biso   1.000  C
  C2697    1.0000 0.89090  0.10910  0.72110  Biso   1.000  C
  C2698    1.0000 0.72110  0.10910  0.10910  Biso   1.000  C
  C2699    1.0000 0.27890  0.10910  0.10910  Biso   1.000  C
  C2700    1.0000 0.10910  0.27890  0.10910  Biso   1.000  C
  C2701    1.0000 0.89090  0.72110  0.10910  Biso   1.000  C
  C2702    1.0000 0.27890  0.89090  0.89090  Biso   1.000  C
  C2703    1.0000 0.89090  0.27890  0.89090  Biso   1.000  C
  C2704    1.0000 0.72110  0.89090  0.10910  Biso   1.000  C
  C2705    1.0000 0.72110  0.10910  0.89090  Biso   1.000  C
  C2706    1.0000 0.10910  0.72110  0.89090  Biso   1.000  C
  C2707    1.0000 0.10910  0.10910  0.72110  Biso   1.000  C
  C2708    1.0000 0.89090  0.89090  0.72110  Biso   1.000  C
  C2709    1.0000 0.89090  0.27890  0.10910  Biso   1.000  C
  C2710    1.0000 0.89090  0.72110  0.89090  Biso   1.000  C
  C2711    1.0000 0.27890  0.89090  0.10910  Biso   1.000  C
  C2712    1.0000 0.72110  0.89090  0.89090  Biso   1.000  C
  C2713    1.0000 0.10910  0.60910  0.77890  Biso   1.000  C
  C2714    1.0000 0.89090  0.60910  0.77890  Biso   1.000  C
  C2715    1.0000 0.89090  0.39090  0.77890  Biso   1.000  C
  C2716    1.0000 0.10910  0.39090  0.77890  Biso   1.000  C
  C2717    1.0000 0.10910  0.22110  0.60910  Biso   1.000  C
  C2718    1.0000 0.10910  0.39090  0.22110  Biso   1.000  C
  C2719    1.0000 0.10910  0.77890  0.39090  Biso   1.000  C
  C2720    1.0000 0.27890  0.60910  0.39090  Biso   1.000  C
  C2721    1.0000 0.89090  0.60910  0.22110  Biso   1.000  C
  C2722    1.0000 0.72110  0.60910  0.60910  Biso   1.000  C
  C2723    1.0000 0.27890  0.60910  0.60910  Biso   1.000  C
  C2724    1.0000 0.10910  0.77890  0.60910  Biso   1.000  C
  C2725    1.0000 0.89090  0.22110  0.60910  Biso   1.000  C
  C2726    1.0000 0.27890  0.39090  0.39090  Biso   1.000  C
  C2727    1.0000 0.89090  0.77890  0.39090  Biso   1.000  C
  C2728    1.0000 0.72110  0.39090  0.60910  Biso   1.000  C
  C2729    1.0000 0.72110  0.60910  0.39090  Biso   1.000  C
  C2730    1.0000 0.10910  0.22110  0.39090  Biso   1.000  C
  C2731    1.0000 0.10910  0.60910  0.22110  Biso   1.000  C
  C2732    1.0000 0.89090  0.39090  0.22110  Biso   1.000  C
  C2733    1.0000 0.89090  0.77890  0.60910  Biso   1.000  C
  C2734    1.0000 0.89090  0.22110  0.39090  Biso   1.000  C
  C2735    1.0000 0.27890  0.39090  0.60910  Biso   1.000  C
  C2736    1.0000 0.72110  0.39090  0.39090  Biso   1.000  C
  C2737    1.0000 0.60910  0.10910  0.77890  Biso   1.000  C
  C2738    1.0000 0.39090  0.10910  0.77890  Biso   1.000  C
  C2739    1.0000 0.39090  0.89090  0.77890  Biso   1.000  C
  C2740    1.0000 0.60910  0.89090  0.77890  Biso   1.000  C
  C2741    1.0000 0.60910  0.72110  0.60910  Biso   1.000  C
  C2742    1.0000 0.60910  0.89090  0.22110  Biso   1.000  C
  C2743    1.0000 0.60910  0.27890  0.39090  Biso   1.000  C
  C2744    1.0000 0.77890  0.10910  0.39090  Biso   1.000  C
  C2745    1.0000 0.39090  0.10910  0.22110  Biso   1.000  C
  C2746    1.0000 0.22110  0.10910  0.60910  Biso   1.000  C
  C2747    1.0000 0.77890  0.10910  0.60910  Biso   1.000  C
  C2748    1.0000 0.60910  0.27890  0.60910  Biso   1.000  C
  C2749    1.0000 0.39090  0.72110  0.60910  Biso   1.000  C
  C2750    1.0000 0.77890  0.89090  0.39090  Biso   1.000  C
  C2751    1.0000 0.39090  0.27890  0.39090  Biso   1.000  C
  C2752    1.0000 0.22110  0.89090  0.60910  Biso   1.000  C
  C2753    1.0000 0.22110  0.10910  0.39090  Biso   1.000  C
  C2754    1.0000 0.60910  0.72110  0.39090  Biso   1.000  C
  C2755    1.0000 0.60910  0.10910  0.22110  Biso   1.000  C
  C2756    1.0000 0.39090  0.89090  0.22110  Biso   1.000  C
  C2757    1.0000 0.39090  0.27890  0.60910  Biso   1.000  C
  C2758    1.0000 0.39090  0.72110  0.39090  Biso   1.000  C
  C2759    1.0000 0.77890  0.89090  0.60910  Biso   1.000  C
  C2760    1.0000 0.22110  0.89090  0.39090  Biso   1.000  C
  C2761    1.0000 0.60910  0.60910  0.27890  Biso   1.000  C
  C2762    1.0000 0.39090  0.60910  0.27890  Biso   1.000  C
  C2763    1.0000 0.39090  0.39090  0.27890  Biso   1.000  C
  C2764    1.0000 0.60910  0.39090  0.27890  Biso   1.000  C
  C2765    1.0000 0.60910  0.22110  0.10910  Biso   1.000  C
  C2766    1.0000 0.60910  0.39090  0.72110  Biso   1.000  C
  C2767    1.0000 0.60910  0.77890  0.89090  Biso   1.000  C
  C2768    1.0000 0.77890  0.60910  0.89090  Biso   1.000  C
  C2769    1.0000 0.39090  0.60910  0.72110  Biso   1.000  C
  C2770    1.0000 0.22110  0.60910  0.10910  Biso   1.000  C
  C2771    1.0000 0.77890  0.60910  0.10910  Biso   1.000  C
  C2772    1.0000 0.60910  0.77890  0.10910  Biso   1.000  C
  C2773    1.0000 0.39090  0.22110  0.10910  Biso   1.000  C
  C2774    1.0000 0.77890  0.39090  0.89090  Biso   1.000  C
  C2775    1.0000 0.39090  0.77890  0.89090  Biso   1.000  C
  C2776    1.0000 0.22110  0.39090  0.10910  Biso   1.000  C
  C2777    1.0000 0.22110  0.60910  0.89090  Biso   1.000  C
  C2778    1.0000 0.60910  0.22110  0.89090  Biso   1.000  C
  C2779    1.0000 0.60910  0.60910  0.72110  Biso   1.000  C
  C2780    1.0000 0.39090  0.39090  0.72110  Biso   1.000  C
  C2781    1.0000 0.39090  0.77890  0.10910  Biso   1.000  C
  C2782    1.0000 0.39090  0.22110  0.89090  Biso   1.000  C
  C2783    1.0000 0.77890  0.39090  0.10910  Biso   1.000  C
  C2784    1.0000 0.22110  0.39090  0.89090  Biso   1.000  C
  C2785    1.0000 0.11660  0.11660  0.30070  Biso   1.000  C
  C2786    1.0000 0.88340  0.11660  0.30070  Biso   1.000  C
  C2787    1.0000 0.88340  0.88340  0.30070  Biso   1.000  C
  C2788    1.0000 0.11660  0.88340  0.30070  Biso   1.000  C
  C2789    1.0000 0.11660  0.69930  0.11660  Biso   1.000  C
  C2790    1.0000 0.11660  0.88340  0.69930  Biso   1.000  C
  C2791    1.0000 0.11660  0.30070  0.88340  Biso   1.000  C
  C2792    1.0000 0.30070  0.11660  0.88340  Biso   1.000  C
  C2793    1.0000 0.88340  0.11660  0.69930  Biso   1.000  C
  C2794    1.0000 0.69930  0.11660  0.11660  Biso   1.000  C
  C2795    1.0000 0.30070  0.11660  0.11660  Biso   1.000  C
  C2796    1.0000 0.11660  0.30070  0.11660  Biso   1.000  C
  C2797    1.0000 0.88340  0.69930  0.11660  Biso   1.000  C
  C2798    1.0000 0.30070  0.88340  0.88340  Biso   1.000  C
  C2799    1.0000 0.88340  0.30070  0.88340  Biso   1.000  C
  C2800    1.0000 0.69930  0.88340  0.11660  Biso   1.000  C
  C2801    1.0000 0.69930  0.11660  0.88340  Biso   1.000  C
  C2802    1.0000 0.11660  0.69930  0.88340  Biso   1.000  C
  C2803    1.0000 0.11660  0.11660  0.69930  Biso   1.000  C
  C2804    1.0000 0.88340  0.88340  0.69930  Biso   1.000  C
  C2805    1.0000 0.88340  0.30070  0.11660  Biso   1.000  C
  C2806    1.0000 0.88340  0.69930  0.88340  Biso   1.000  C
  C2807    1.0000 0.30070  0.88340  0.11660  Biso   1.000  C
  C2808    1.0000 0.69930  0.88340  0.88340  Biso   1.000  C
  C2809    1.0000 0.11660  0.61660  0.80070  Biso   1.000  C
  C2810    1.0000 0.88340  0.61660  0.80070  Biso   1.000  C
  C2811    1.0000 0.88340  0.38340  0.80070  Biso   1.000  C
  C2812    1.0000 0.11660  0.38340  0.80070  Biso   1.000  C
  C2813    1.0000 0.11660  0.19930  0.61660  Biso   1.000  C
  C2814    1.0000 0.11660  0.38340  0.19930  Biso   1.000  C
  C2815    1.0000 0.11660  0.80070  0.38340  Biso   1.000  C
  C2816    1.0000 0.30070  0.61660  0.38340  Biso   1.000  C
  C2817    1.0000 0.88340  0.61660  0.19930  Biso   1.000  C
  C2818    1.0000 0.69930  0.61660  0.61660  Biso   1.000  C
  C2819    1.0000 0.30070  0.61660  0.61660  Biso   1.000  C
  C2820    1.0000 0.11660  0.80070  0.61660  Biso   1.000  C
  C2821    1.0000 0.88340  0.19930  0.61660  Biso   1.000  C
  C2822    1.0000 0.30070  0.38340  0.38340  Biso   1.000  C
  C2823    1.0000 0.88340  0.80070  0.38340  Biso   1.000  C
  C2824    1.0000 0.69930  0.38340  0.61660  Biso   1.000  C
  C2825    1.0000 0.69930  0.61660  0.38340  Biso   1.000  C
  C2826    1.0000 0.11660  0.19930  0.38340  Biso   1.000  C
  C2827    1.0000 0.11660  0.61660  0.19930  Biso   1.000  C
  C2828    1.0000 0.88340  0.38340  0.19930  Biso   1.000  C
  C2829    1.0000 0.88340  0.80070  0.61660  Biso   1.000  C
  C2830    1.0000 0.88340  0.19930  0.38340  Biso   1.000  C
  C2831    1.0000 0.30070  0.38340  0.61660  Biso   1.000  C
  C2832    1.0000 0.69930  0.38340  0.38340  Biso   1.000  C
  C2833    1.0000 0.61660  0.11660  0.80070  Biso   1.000  C
  C2834    1.0000 0.38340  0.11660  0.80070  Biso   1.000  C
  C2835    1.0000 0.38340  0.88340  0.80070  Biso   1.000  C
  C2836    1.0000 0.61660  0.88340  0.80070  Biso   1.000  C
  C2837    1.0000 0.61660  0.69930  0.61660  Biso   1.000  C
  C2838    1.0000 0.61660  0.88340  0.19930  Biso   1.000  C
  C2839    1.0000 0.61660  0.30070  0.38340  Biso   1.000  C
  C2840    1.0000 0.80070  0.11660  0.38340  Biso   1.000  C
  C2841    1.0000 0.38340  0.11660  0.19930  Biso   1.000  C
  C2842    1.0000 0.19930  0.11660  0.61660  Biso   1.000  C
  C2843    1.0000 0.80070  0.11660  0.61660  Biso   1.000  C
  C2844    1.0000 0.61660  0.30070  0.61660  Biso   1.000  C
  C2845    1.0000 0.38340  0.69930  0.61660  Biso   1.000  C
  C2846    1.0000 0.80070  0.88340  0.38340  Biso   1.000  C
  C2847    1.0000 0.38340  0.30070  0.38340  Biso   1.000  C
  C2848    1.0000 0.19930  0.88340  0.61660  Biso   1.000  C
  C2849    1.0000 0.19930  0.11660  0.38340  Biso   1.000  C
  C2850    1.0000 0.61660  0.69930  0.38340  Biso   1.000  C
  C2851    1.0000 0.61660  0.11660  0.19930  Biso   1.000  C
  C2852    1.0000 0.38340  0.88340  0.19930  Biso   1.000  C
  C2853    1.0000 0.38340  0.30070  0.61660  Biso   1.000  C
  C2854    1.0000 0.38340  0.69930  0.38340  Biso   1.000  C
  C2855    1.0000 0.80070  0.88340  0.61660  Biso   1.000  C
  C2856    1.0000 0.19930  0.88340  0.38340  Biso   1.000  C
  C2857    1.0000 0.61660  0.61660  0.30070  Biso   1.000  C
  C2858    1.0000 0.38340  0.61660  0.30070  Biso   1.000  C
  C2859    1.0000 0.38340  0.38340  0.30070  Biso   1.000  C
  C2860    1.0000 0.61660  0.38340  0.30070  Biso   1.000  C
  C2861    1.0000 0.61660  0.19930  0.11660  Biso   1.000  C
  C2862    1.0000 0.61660  0.38340  0.69930  Biso   1.000  C
  C2863    1.0000 0.61660  0.80070  0.88340  Biso   1.000  C
  C2864    1.0000 0.80070  0.61660  0.88340  Biso   1.000  C
  C2865    1.0000 0.38340  0.61660  0.69930  Biso   1.000  C
  C2866    1.0000 0.19930  0.61660  0.11660  Biso   1.000  C
  C2867    1.0000 0.80070  0.61660  0.11660  Biso   1.000  C
  C2868    1.0000 0.61660  0.80070  0.11660  Biso   1.000  C
  C2869    1.0000 0.38340  0.19930  0.11660  Biso   1.000  C
  C2870    1.0000 0.80070  0.38340  0.88340  Biso   1.000  C
  C2871    1.0000 0.38340  0.80070  0.88340  Biso   1.000  C
  C2872    1.0000 0.19930  0.38340  0.11660  Biso   1.000  C
  C2873    1.0000 0.19930  0.61660  0.88340  Biso   1.000  C
  C2874    1.0000 0.61660  0.19930  0.88340  Biso   1.000  C
  C2875    1.0000 0.61660  0.61660  0.69930  Biso   1.000  C
  C2876    1.0000 0.38340  0.38340  0.69930  Biso   1.000  C
  C2877    1.0000 0.38340  0.80070  0.11660  Biso   1.000  C
  C2878    1.0000 0.38340  0.19930  0.88340  Biso   1.000  C
  C2879    1.0000 0.80070  0.38340  0.11660  Biso   1.000  C
  C2880    1.0000 0.19930  0.38340  0.88340  Biso   1.000  C
  C2881    1.0000 0.12280  0.12280  0.31880  Biso   1.000  C
  C2882    1.0000 0.87720  0.12280  0.31880  Biso   1.000  C
  C2883    1.0000 0.87720  0.87720  0.31880  Biso   1.000  C
  C2884    1.0000 0.12280  0.87720  0.31880  Biso   1.000  C
  C2885    1.0000 0.12280  0.68120  0.12280  Biso   1.000  C
  C2886    1.0000 0.12280  0.87720  0.68120  Biso   1.000  C
  C2887    1.0000 0.12280  0.31880  0.87720  Biso   1.000  C
  C2888    1.0000 0.31880  0.12280  0.87720  Biso   1.000  C
  C2889    1.0000 0.87720  0.12280  0.68120  Biso   1.000  C
  C2890    1.0000 0.68120  0.12280  0.12280  Biso   1.000  C
  C2891    1.0000 0.31880  0.12280  0.12280  Biso   1.000  C
  C2892    1.0000 0.12280  0.31880  0.12280  Biso   1.000  C
  C2893    1.0000 0.87720  0.68120  0.12280  Biso   1.000  C
  C2894    1.0000 0.31880  0.87720  0.87720  Biso   1.000  C
  C2895    1.0000 0.87720  0.31880  0.87720  Biso   1.000  C
  C2896    1.0000 0.68120  0.87720  0.12280  Biso   1.000  C
  C2897    1.0000 0.68120  0.12280  0.87720  Biso   1.000  C
  C2898    1.0000 0.12280  0.68120  0.87720  Biso   1.000  C
  C2899    1.0000 0.12280  0.12280  0.68120  Biso   1.000  C
  C2900    1.0000 0.87720  0.87720  0.68120  Biso   1.000  C
  C2901    1.0000 0.87720  0.31880  0.12280  Biso   1.000  C
  C2902    1.0000 0.87720  0.68120  0.87720  Biso   1.000  C
  C2903    1.0000 0.31880  0.87720  0.12280  Biso   1.000  C
  C2904    1.0000 0.68120  0.87720  0.87720  Biso   1.000  C
  C2905    1.0000 0.12280  0.62280  0.81880  Biso   1.000  C
  C2906    1.0000 0.87720  0.62280  0.81880  Biso   1.000  C
  C2907    1.0000 0.87720  0.37720  0.81880  Biso   1.000  C
  C2908    1.0000 0.12280  0.37720  0.81880  Biso   1.000  C
  C2909    1.0000 0.12280  0.18120  0.62280  Biso   1.000  C
  C2910    1.0000 0.12280  0.37720  0.18120  Biso   1.000  C
  C2911    1.0000 0.12280  0.81880  0.37720  Biso   1.000  C
  C2912    1.0000 0.31880  0.62280  0.37720  Biso   1.000  C
  C2913    1.0000 0.87720  0.62280  0.18120  Biso   1.000  C
  C2914    1.0000 0.68120  0.62280  0.62280  Biso   1.000  C
  C2915    1.0000 0.31880  0.62280  0.62280  Biso   1.000  C
  C2916    1.0000 0.12280  0.81880  0.62280  Biso   1.000  C
  C2917    1.0000 0.87720  0.18120  0.62280  Biso   1.000  C
  C2918    1.0000 0.31880  0.37720  0.37720  Biso   1.000  C
  C2919    1.0000 0.87720  0.81880  0.37720  Biso   1.000  C
  C2920    1.0000 0.68120  0.37720  0.62280  Biso   1.000  C
  C2921    1.0000 0.68120  0.62280  0.37720  Biso   1.000  C
  C2922    1.0000 0.12280  0.18120  0.37720  Biso   1.000  C
  C2923    1.0000 0.12280  0.62280  0.18120  Biso   1.000  C
  C2924    1.0000 0.87720  0.37720  0.18120  Biso   1.000  C
  C2925    1.0000 0.87720  0.81880  0.62280  Biso   1.000  C
  C2926    1.0000 0.87720  0.18120  0.37720  Biso   1.000  C
  C2927    1.0000 0.31880  0.37720  0.62280  Biso   1.000  C
  C2928    1.0000 0.68120  0.37720  0.37720  Biso   1.000  C
  C2929    1.0000 0.62280  0.12280  0.81880  Biso   1.000  C
  C2930    1.0000 0.37720  0.12280  0.81880  Biso   1.000  C
  C2931    1.0000 0.37720  0.87720  0.81880  Biso   1.000  C
  C2932    1.0000 0.62280  0.87720  0.81880  Biso   1.000  C
  C2933    1.0000 0.62280  0.68120  0.62280  Biso   1.000  C
  C2934    1.0000 0.62280  0.87720  0.18120  Biso   1.000  C
  C2935    1.0000 0.62280  0.31880  0.37720  Biso   1.000  C
  C2936    1.0000 0.81880  0.12280  0.37720  Biso   1.000  C
  C2937    1.0000 0.37720  0.12280  0.18120  Biso   1.000  C
  C2938    1.0000 0.18120  0.12280  0.62280  Biso   1.000  C
  C2939    1.0000 0.81880  0.12280  0.62280  Biso   1.000  C
  C2940    1.0000 0.62280  0.31880  0.62280  Biso   1.000  C
  C2941    1.0000 0.37720  0.68120  0.62280  Biso   1.000  C
  C2942    1.0000 0.81880  0.87720  0.37720  Biso   1.000  C
  C2943    1.0000 0.37720  0.31880  0.37720  Biso   1.000  C
  C2944    1.0000 0.18120  0.87720  0.62280  Biso   1.000  C
  C2945    1.0000 0.18120  0.12280  0.37720  Biso   1.000  C
  C2946    1.0000 0.62280  0.68120  0.37720  Biso   1.000  C
  C2947    1.0000 0.62280  0.12280  0.18120  Biso   1.000  C
  C2948    1.0000 0.37720  0.87720  0.18120  Biso   1.000  C
  C2949    1.0000 0.37720  0.31880  0.62280  Biso   1.000  C
  C2950    1.0000 0.37720  0.68120  0.37720  Biso   1.000  C
  C2951    1.0000 0.81880  0.87720  0.62280  Biso   1.000  C
  C2952    1.0000 0.18120  0.87720  0.37720  Biso   1.000  C
  C2953    1.0000 0.62280  0.62280  0.31880  Biso   1.000  C
  C2954    1.0000 0.37720  0.62280  0.31880  Biso   1.000  C
  C2955    1.0000 0.37720  0.37720  0.31880  Biso   1.000  C
  C2956    1.0000 0.62280  0.37720  0.31880  Biso   1.000  C
  C2957    1.0000 0.62280  0.18120  0.12280  Biso   1.000  C
  C2958    1.0000 0.62280  0.37720  0.68120  Biso   1.000  C
  C2959    1.0000 0.62280  0.81880  0.87720  Biso   1.000  C
  C2960    1.0000 0.81880  0.62280  0.87720  Biso   1.000  C
  C2961    1.0000 0.37720  0.62280  0.68120  Biso   1.000  C
  C2962    1.0000 0.18120  0.62280  0.12280  Biso   1.000  C
  C2963    1.0000 0.81880  0.62280  0.12280  Biso   1.000  C
  C2964    1.0000 0.62280  0.81880  0.12280  Biso   1.000  C
  C2965    1.0000 0.37720  0.18120  0.12280  Biso   1.000  C
  C2966    1.0000 0.81880  0.37720  0.87720  Biso   1.000  C
  C2967    1.0000 0.37720  0.81880  0.87720  Biso   1.000  C
  C2968    1.0000 0.18120  0.37720  0.12280  Biso   1.000  C
  C2969    1.0000 0.18120  0.62280  0.87720  Biso   1.000  C
  C2970    1.0000 0.62280  0.18120  0.87720  Biso   1.000  C
  C2971    1.0000 0.62280  0.62280  0.68120  Biso   1.000  C
  C2972    1.0000 0.37720  0.37720  0.68120  Biso   1.000  C
  C2973    1.0000 0.37720  0.81880  0.12280  Biso   1.000  C
  C2974    1.0000 0.37720  0.18120  0.87720  Biso   1.000  C
  C2975    1.0000 0.81880  0.37720  0.12280  Biso   1.000  C
  C2976    1.0000 0.18120  0.37720  0.87720  Biso   1.000  C
  C2977    1.0000 0.15110  0.12230  0.34890  Biso   1.000  C
  C2978    1.0000 0.87770  0.15110  0.34890  Biso   1.000  C
  C2979    1.0000 0.84890  0.87770  0.34890  Biso   1.000  C
  C2980    1.0000 0.12230  0.84890  0.34890  Biso   1.000  C
  C2981    1.0000 0.15110  0.65110  0.12230  Biso   1.000  C
  C2982    1.0000 0.15110  0.87770  0.65110  Biso   1.000  C
  C2983    1.0000 0.15110  0.34890  0.87770  Biso   1.000  C
  C2984    1.0000 0.34890  0.12230  0.84890  Biso   1.000  C
  C2985    1.0000 0.84890  0.12230  0.65110  Biso   1.000  C
  C2986    1.0000 0.65110  0.12230  0.15110  Biso   1.000  C
  C2987    1.0000 0.34890  0.15110  0.12230  Biso   1.000  C
  C2988    1.0000 0.12230  0.34890  0.15110  Biso   1.000  C
  C2989    1.0000 0.87770  0.65110  0.15110  Biso   1.000  C
  C2990    1.0000 0.34890  0.84890  0.87770  Biso   1.000  C
  C2991    1.0000 0.87770  0.34890  0.84890  Biso   1.000  C
  C2992    1.0000 0.65110  0.84890  0.12230  Biso   1.000  C
  C2993    1.0000 0.65110  0.15110  0.87770  Biso   1.000  C
  C2994    1.0000 0.12230  0.65110  0.84890  Biso   1.000  C
  C2995    1.0000 0.12230  0.15110  0.65110  Biso   1.000  C
  C2996    1.0000 0.87770  0.84890  0.65110  Biso   1.000  C
  C2997    1.0000 0.84890  0.34890  0.12230  Biso   1.000  C
  C2998    1.0000 0.84890  0.65110  0.87770  Biso   1.000  C
  C2999    1.0000 0.34890  0.87770  0.15110  Biso   1.000  C
  C3000    1.0000 0.65110  0.87770  0.84890  Biso   1.000  C
  C3001    1.0000 0.15110  0.62230  0.84890  Biso   1.000  C
  C3002    1.0000 0.87770  0.65110  0.84890  Biso   1.000  C
  C3003    1.0000 0.84890  0.37770  0.84890  Biso   1.000  C
  C3004    1.0000 0.12230  0.34890  0.84890  Biso   1.000  C
  C3005    1.0000 0.15110  0.15110  0.62230  Biso   1.000  C
  C3006    1.0000 0.15110  0.37770  0.15110  Biso   1.000  C
  C3007    1.0000 0.15110  0.84890  0.37770  Biso   1.000  C
  C3008    1.0000 0.34890  0.62230  0.34890  Biso   1.000  C
  C3009    1.0000 0.84890  0.62230  0.15110  Biso   1.000  C
  C3010    1.0000 0.65110  0.62230  0.65110  Biso   1.000  C
  C3011    1.0000 0.34890  0.65110  0.62230  Biso   1.000  C
  C3012    1.0000 0.12230  0.84890  0.65110  Biso   1.000  C
  C3013    1.0000 0.87770  0.15110  0.65110  Biso   1.000  C
  C3014    1.0000 0.34890  0.34890  0.37770  Biso   1.000  C
  C3015    1.0000 0.87770  0.84890  0.34890  Biso   1.000  C
  C3016    1.0000 0.65110  0.34890  0.62230  Biso   1.000  C
  C3017    1.0000 0.65110  0.65110  0.37770  Biso   1.000  C
  C3018    1.0000 0.12230  0.15110  0.34890  Biso   1.000  C
  C3019    1.0000 0.12230  0.65110  0.15110  Biso   1.000  C
  C3020    1.0000 0.87770  0.34890  0.15110  Biso   1.000  C
  C3021    1.0000 0.84890  0.84890  0.62230  Biso   1.000  C
  C3022    1.0000 0.84890  0.15110  0.37770  Biso   1.000  C
  C3023    1.0000 0.34890  0.37770  0.65110  Biso   1.000  C
  C3024    1.0000 0.65110  0.37770  0.34890  Biso   1.000  C
  C3025    1.0000 0.65110  0.12230  0.84890  Biso   1.000  C
  C3026    1.0000 0.37770  0.15110  0.84890  Biso   1.000  C
  C3027    1.0000 0.34890  0.87770  0.84890  Biso   1.000  C
  C3028    1.0000 0.62230  0.84890  0.84890  Biso   1.000  C
  C3029    1.0000 0.65110  0.65110  0.62230  Biso   1.000  C
  C3030    1.0000 0.65110  0.87770  0.15110  Biso   1.000  C
  C3031    1.0000 0.65110  0.34890  0.37770  Biso   1.000  C
  C3032    1.0000 0.84890  0.12230  0.34890  Biso   1.000  C
  C3033    1.0000 0.34890  0.12230  0.15110  Biso   1.000  C
  C3034    1.0000 0.15110  0.12230  0.65110  Biso   1.000  C
  C3035    1.0000 0.84890  0.15110  0.62230  Biso   1.000  C
  C3036    1.0000 0.62230  0.34890  0.65110  Biso   1.000  C
  C3037    1.0000 0.37770  0.65110  0.65110  Biso   1.000  C
  C3038    1.0000 0.84890  0.84890  0.37770  Biso   1.000  C
  C3039    1.0000 0.37770  0.34890  0.34890  Biso   1.000  C
  C3040    1.0000 0.15110  0.84890  0.62230  Biso   1.000  C
  C3041    1.0000 0.15110  0.15110  0.37770  Biso   1.000  C
  C3042    1.0000 0.62230  0.65110  0.34890  Biso   1.000  C
  C3043    1.0000 0.62230  0.15110  0.15110  Biso   1.000  C
  C3044    1.0000 0.37770  0.84890  0.15110  Biso   1.000  C
  C3045    1.0000 0.34890  0.34890  0.62230  Biso   1.000  C
  C3046    1.0000 0.34890  0.65110  0.37770  Biso   1.000  C
  C3047    1.0000 0.84890  0.87770  0.65110  Biso   1.000  C
  C3048    1.0000 0.15110  0.87770  0.34890  Biso   1.000  C
  C3049    1.0000 0.65110  0.62230  0.34890  Biso   1.000  C
  C3050    1.0000 0.37770  0.65110  0.34890  Biso   1.000  C
  C3051    1.0000 0.34890  0.37770  0.34890  Biso   1.000  C
  C3052    1.0000 0.62230  0.34890  0.34890  Biso   1.000  C
  C3053    1.0000 0.65110  0.15110  0.12230  Biso   1.000  C
  C3054    1.0000 0.65110  0.37770  0.65110  Biso   1.000  C
  C3055    1.0000 0.65110  0.84890  0.87770  Biso   1.000  C
  C3056    1.0000 0.84890  0.62230  0.84890  Biso   1.000  C
  C3057    1.0000 0.34890  0.62230  0.65110  Biso   1.000  C
  C3058    1.0000 0.15110  0.62230  0.15110  Biso   1.000  C
  C3059    1.0000 0.84890  0.65110  0.12230  Biso   1.000  C
  C3060    1.0000 0.62230  0.84890  0.15110  Biso   1.000  C
  C3061    1.0000 0.37770  0.15110  0.15110  Biso   1.000  C
  C3062    1.0000 0.84890  0.34890  0.87770  Biso   1.000  C
  C3063    1.0000 0.37770  0.84890  0.84890  Biso   1.000  C
  C3064    1.0000 0.15110  0.34890  0.12230  Biso   1.000  C
  C3065    1.0000 0.15110  0.65110  0.87770  Biso   1.000  C
  C3066    1.0000 0.62230  0.15110  0.84890  Biso   1.000  C
  C3067    1.0000 0.62230  0.65110  0.65110  Biso   1.000  C
  C3068    1.0000 0.37770  0.34890  0.65110  Biso   1.000  C
  C3069    1.0000 0.34890  0.84890  0.12230  Biso   1.000  C
  C3070    1.0000 0.34890  0.15110  0.87770  Biso   1.000  C
  C3071    1.0000 0.84890  0.37770  0.15110  Biso   1.000  C
  C3072    1.0000 0.15110  0.37770  0.84890  Biso   1.000  C
  C3073    1.0000 0.15620  0.10800  0.34380  Biso   1.000  C
  C3074    1.0000 0.89200  0.15620  0.34380  Biso   1.000  C
  C3075    1.0000 0.84380  0.89200  0.34380  Biso   1.000  C
  C3076    1.0000 0.10800  0.84380  0.34380  Biso   1.000  C
  C3077    1.0000 0.15620  0.65620  0.10800  Biso   1.000  C
  C3078    1.0000 0.15620  0.89200  0.65620  Biso   1.000  C
  C3079    1.0000 0.15620  0.34380  0.89200  Biso   1.000  C
  C3080    1.0000 0.34380  0.10800  0.84380  Biso   1.000  C
  C3081    1.0000 0.84380  0.10800  0.65620  Biso   1.000  C
  C3082    1.0000 0.65620  0.10800  0.15620  Biso   1.000  C
  C3083    1.0000 0.34380  0.15620  0.10800  Biso   1.000  C
  C3084    1.0000 0.10800  0.34380  0.15620  Biso   1.000  C
  C3085    1.0000 0.89200  0.65620  0.15620  Biso   1.000  C
  C3086    1.0000 0.34380  0.84380  0.89200  Biso   1.000  C
  C3087    1.0000 0.89200  0.34380  0.84380  Biso   1.000  C
  C3088    1.0000 0.65620  0.84380  0.10800  Biso   1.000  C
  C3089    1.0000 0.65620  0.15620  0.89200  Biso   1.000  C
  C3090    1.0000 0.10800  0.65620  0.84380  Biso   1.000  C
  C3091    1.0000 0.10800  0.15620  0.65620  Biso   1.000  C
  C3092    1.0000 0.89200  0.84380  0.65620  Biso   1.000  C
  C3093    1.0000 0.84380  0.34380  0.10800  Biso   1.000  C
  C3094    1.0000 0.84380  0.65620  0.89200  Biso   1.000  C
  C3095    1.0000 0.34380  0.89200  0.15620  Biso   1.000  C
  C3096    1.0000 0.65620  0.89200  0.84380  Biso   1.000  C
  C3097    1.0000 0.15620  0.60800  0.84380  Biso   1.000  C
  C3098    1.0000 0.89200  0.65620  0.84380  Biso   1.000  C
  C3099    1.0000 0.84380  0.39200  0.84380  Biso   1.000  C
  C3100    1.0000 0.10800  0.34380  0.84380  Biso   1.000  C
  C3101    1.0000 0.15620  0.15620  0.60800  Biso   1.000  C
  C3102    1.0000 0.15620  0.39200  0.15620  Biso   1.000  C
  C3103    1.0000 0.15620  0.84380  0.39200  Biso   1.000  C
  C3104    1.0000 0.34380  0.60800  0.34380  Biso   1.000  C
  C3105    1.0000 0.84380  0.60800  0.15620  Biso   1.000  C
  C3106    1.0000 0.65620  0.60800  0.65620  Biso   1.000  C
  C3107    1.0000 0.34380  0.65620  0.60800  Biso   1.000  C
  C3108    1.0000 0.10800  0.84380  0.65620  Biso   1.000  C
  C3109    1.0000 0.89200  0.15620  0.65620  Biso   1.000  C
  C3110    1.0000 0.34380  0.34380  0.39200  Biso   1.000  C
  C3111    1.0000 0.89200  0.84380  0.34380  Biso   1.000  C
  C3112    1.0000 0.65620  0.34380  0.60800  Biso   1.000  C
  C3113    1.0000 0.65620  0.65620  0.39200  Biso   1.000  C
  C3114    1.0000 0.10800  0.15620  0.34380  Biso   1.000  C
  C3115    1.0000 0.10800  0.65620  0.15620  Biso   1.000  C
  C3116    1.0000 0.89200  0.34380  0.15620  Biso   1.000  C
  C3117    1.0000 0.84380  0.84380  0.60800  Biso   1.000  C
  C3118    1.0000 0.84380  0.15620  0.39200  Biso   1.000  C
  C3119    1.0000 0.34380  0.39200  0.65620  Biso   1.000  C
  C3120    1.0000 0.65620  0.39200  0.34380  Biso   1.000  C
  C3121    1.0000 0.65620  0.10800  0.84380  Biso   1.000  C
  C3122    1.0000 0.39200  0.15620  0.84380  Biso   1.000  C
  C3123    1.0000 0.34380  0.89200  0.84380  Biso   1.000  C
  C3124    1.0000 0.60800  0.84380  0.84380  Biso   1.000  C
  C3125    1.0000 0.65620  0.65620  0.60800  Biso   1.000  C
  C3126    1.0000 0.65620  0.89200  0.15620  Biso   1.000  C
  C3127    1.0000 0.65620  0.34380  0.39200  Biso   1.000  C
  C3128    1.0000 0.84380  0.10800  0.34380  Biso   1.000  C
  C3129    1.0000 0.34380  0.10800  0.15620  Biso   1.000  C
  C3130    1.0000 0.15620  0.10800  0.65620  Biso   1.000  C
  C3131    1.0000 0.84380  0.15620  0.60800  Biso   1.000  C
  C3132    1.0000 0.60800  0.34380  0.65620  Biso   1.000  C
  C3133    1.0000 0.39200  0.65620  0.65620  Biso   1.000  C
  C3134    1.0000 0.84380  0.84380  0.39200  Biso   1.000  C
  C3135    1.0000 0.39200  0.34380  0.34380  Biso   1.000  C
  C3136    1.0000 0.15620  0.84380  0.60800  Biso   1.000  C
  C3137    1.0000 0.15620  0.15620  0.39200  Biso   1.000  C
  C3138    1.0000 0.60800  0.65620  0.34380  Biso   1.000  C
  C3139    1.0000 0.60800  0.15620  0.15620  Biso   1.000  C
  C3140    1.0000 0.39200  0.84380  0.15620  Biso   1.000  C
  C3141    1.0000 0.34380  0.34380  0.60800  Biso   1.000  C
  C3142    1.0000 0.34380  0.65620  0.39200  Biso   1.000  C
  C3143    1.0000 0.84380  0.89200  0.65620  Biso   1.000  C
  C3144    1.0000 0.15620  0.89200  0.34380  Biso   1.000  C
  C3145    1.0000 0.65620  0.60800  0.34380  Biso   1.000  C
  C3146    1.0000 0.39200  0.65620  0.34380  Biso   1.000  C
  C3147    1.0000 0.34380  0.39200  0.34380  Biso   1.000  C
  C3148    1.0000 0.60800  0.34380  0.34380  Biso   1.000  C
  C3149    1.0000 0.65620  0.15620  0.10800  Biso   1.000  C
  C3150    1.0000 0.65620  0.39200  0.65620  Biso   1.000  C
  C3151    1.0000 0.65620  0.84380  0.89200  Biso   1.000  C
  C3152    1.0000 0.84380  0.60800  0.84380  Biso   1.000  C
  C3153    1.0000 0.34380  0.60800  0.65620  Biso   1.000  C
  C3154    1.0000 0.15620  0.60800  0.15620  Biso   1.000  C
  C3155    1.0000 0.84380  0.65620  0.10800  Biso   1.000  C
  C3156    1.0000 0.60800  0.84380  0.15620  Biso   1.000  C
  C3157    1.0000 0.39200  0.15620  0.15620  Biso   1.000  C
  C3158    1.0000 0.84380  0.34380  0.89200  Biso   1.000  C
  C3159    1.0000 0.39200  0.84380  0.84380  Biso   1.000  C
  C3160    1.0000 0.15620  0.34380  0.10800  Biso   1.000  C
  C3161    1.0000 0.15620  0.65620  0.89200  Biso   1.000  C
  C3162    1.0000 0.60800  0.15620  0.84380  Biso   1.000  C
  C3163    1.0000 0.60800  0.65620  0.65620  Biso   1.000  C
  C3164    1.0000 0.39200  0.34380  0.65620  Biso   1.000  C
  C3165    1.0000 0.34380  0.84380  0.10800  Biso   1.000  C
  C3166    1.0000 0.34380  0.15620  0.89200  Biso   1.000  C
  C3167    1.0000 0.84380  0.39200  0.15620  Biso   1.000  C
  C3168    1.0000 0.15620  0.39200  0.84380  Biso   1.000  C
  C3169    1.0000 0.13290  0.13290  0.33830  Biso   1.000  C
  C3170    1.0000 0.86710  0.13290  0.33830  Biso   1.000  C
  C3171    1.0000 0.86710  0.86710  0.33830  Biso   1.000  C
  C3172    1.0000 0.13290  0.86710  0.33830  Biso   1.000  C
  C3173    1.0000 0.13290  0.66170  0.13290  Biso   1.000  C
  C3174    1.0000 0.13290  0.86710  0.66170  Biso   1.000  C
  C3175    1.0000 0.13290  0.33830  0.86710  Biso   1.000  C
  C3176    1.0000 0.33830  0.13290  0.86710  Biso   1.000  C
  C3177    1.0000 0.86710  0.13290  0.66170  Biso   1.000  C
  C3178    1.0000 0.66170  0.13290  0.13290  Biso   1.000  C
  C3179    1.0000 0.33830  0.13290  0.13290  Biso   1.000  C
  C3180    1.0000 0.13290  0.33830  0.13290  Biso   1.000  C
  C3181    1.0000 0.86710  0.66170  0.13290  Biso   1.000  C
  C3182    1.0000 0.33830  0.86710  0.86710  Biso   1.000  C
  C3183    1.0000 0.86710  0.33830  0.86710  Biso   1.000  C
  C3184    1.0000 0.66170  0.86710  0.13290  Biso   1.000  C
  C3185    1.0000 0.66170  0.13290  0.86710  Biso   1.000  C
  C3186    1.0000 0.13290  0.66170  0.86710  Biso   1.000  C
  C3187    1.0000 0.13290  0.13290  0.66170  Biso   1.000  C
  C3188    1.0000 0.86710  0.86710  0.66170  Biso   1.000  C
  C3189    1.0000 0.86710  0.33830  0.13290  Biso   1.000  C
  C3190    1.0000 0.86710  0.66170  0.86710  Biso   1.000  C
  C3191    1.0000 0.33830  0.86710  0.13290  Biso   1.000  C
  C3192    1.0000 0.66170  0.86710  0.86710  Biso   1.000  C
  C3193    1.0000 0.13290  0.63290  0.83830  Biso   1.000  C
  C3194    1.0000 0.86710  0.63290  0.83830  Biso   1.000  C
  C3195    1.0000 0.86710  0.36710  0.83830  Biso   1.000  C
  C3196    1.0000 0.13290  0.36710  0.83830  Biso   1.000  C
  C3197    1.0000 0.13290  0.16170  0.63290  Biso   1.000  C
  C3198    1.0000 0.13290  0.36710  0.16170  Biso   1.000  C
  C3199    1.0000 0.13290  0.83830  0.36710  Biso   1.000  C
  C3200    1.0000 0.33830  0.63290  0.36710  Biso   1.000  C
  C3201    1.0000 0.86710  0.63290  0.16170  Biso   1.000  C
  C3202    1.0000 0.66170  0.63290  0.63290  Biso   1.000  C
  C3203    1.0000 0.33830  0.63290  0.63290  Biso   1.000  C
  C3204    1.0000 0.13290  0.83830  0.63290  Biso   1.000  C
  C3205    1.0000 0.86710  0.16170  0.63290  Biso   1.000  C
  C3206    1.0000 0.33830  0.36710  0.36710  Biso   1.000  C
  C3207    1.0000 0.86710  0.83830  0.36710  Biso   1.000  C
  C3208    1.0000 0.66170  0.36710  0.63290  Biso   1.000  C
  C3209    1.0000 0.66170  0.63290  0.36710  Biso   1.000  C
  C3210    1.0000 0.13290  0.16170  0.36710  Biso   1.000  C
  C3211    1.0000 0.13290  0.63290  0.16170  Biso   1.000  C
  C3212    1.0000 0.86710  0.36710  0.16170  Biso   1.000  C
  C3213    1.0000 0.86710  0.83830  0.63290  Biso   1.000  C
  C3214    1.0000 0.86710  0.16170  0.36710  Biso   1.000  C
  C3215    1.0000 0.33830  0.36710  0.63290  Biso   1.000  C
  C3216    1.0000 0.66170  0.36710  0.36710  Biso   1.000  C
  C3217    1.0000 0.63290  0.13290  0.83830  Biso   1.000  C
  C3218    1.0000 0.36710  0.13290  0.83830  Biso   1.000  C
  C3219    1.0000 0.36710  0.86710  0.83830  Biso   1.000  C
  C3220    1.0000 0.63290  0.86710  0.83830  Biso   1.000  C
  C3221    1.0000 0.63290  0.66170  0.63290  Biso   1.000  C
  C3222    1.0000 0.63290  0.86710  0.16170  Biso   1.000  C
  C3223    1.0000 0.63290  0.33830  0.36710  Biso   1.000  C
  C3224    1.0000 0.83830  0.13290  0.36710  Biso   1.000  C
  C3225    1.0000 0.36710  0.13290  0.16170  Biso   1.000  C
  C3226    1.0000 0.16170  0.13290  0.63290  Biso   1.000  C
  C3227    1.0000 0.83830  0.13290  0.63290  Biso   1.000  C
  C3228    1.0000 0.63290  0.33830  0.63290  Biso   1.000  C
  C3229    1.0000 0.36710  0.66170  0.63290  Biso   1.000  C
  C3230    1.0000 0.83830  0.86710  0.36710  Biso   1.000  C
  C3231    1.0000 0.36710  0.33830  0.36710  Biso   1.000  C
  C3232    1.0000 0.16170  0.86710  0.63290  Biso   1.000  C
  C3233    1.0000 0.16170  0.13290  0.36710  Biso   1.000  C
  C3234    1.0000 0.63290  0.66170  0.36710  Biso   1.000  C
  C3235    1.0000 0.63290  0.13290  0.16170  Biso   1.000  C
  C3236    1.0000 0.36710  0.86710  0.16170  Biso   1.000  C
  C3237    1.0000 0.36710  0.33830  0.63290  Biso   1.000  C
  C3238    1.0000 0.36710  0.66170  0.36710  Biso   1.000  C
  C3239    1.0000 0.83830  0.86710  0.63290  Biso   1.000  C
  C3240    1.0000 0.16170  0.86710  0.36710  Biso   1.000  C
  C3241    1.0000 0.63290  0.63290  0.33830  Biso   1.000  C
  C3242    1.0000 0.36710  0.63290  0.33830  Biso   1.000  C
  C3243    1.0000 0.36710  0.36710  0.33830  Biso   1.000  C
  C3244    1.0000 0.63290  0.36710  0.33830  Biso   1.000  C
  C3245    1.0000 0.63290  0.16170  0.13290  Biso   1.000  C
  C3246    1.0000 0.63290  0.36710  0.66170  Biso   1.000  C
  C3247    1.0000 0.63290  0.83830  0.86710  Biso   1.000  C
  C3248    1.0000 0.83830  0.63290  0.86710  Biso   1.000  C
  C3249    1.0000 0.36710  0.63290  0.66170  Biso   1.000  C
  C3250    1.0000 0.16170  0.63290  0.13290  Biso   1.000  C
  C3251    1.0000 0.83830  0.63290  0.13290  Biso   1.000  C
  C3252    1.0000 0.63290  0.83830  0.13290  Biso   1.000  C
  C3253    1.0000 0.36710  0.16170  0.13290  Biso   1.000  C
  C3254    1.0000 0.83830  0.36710  0.86710  Biso   1.000  C
  C3255    1.0000 0.36710  0.83830  0.86710  Biso   1.000  C
  C3256    1.0000 0.16170  0.36710  0.13290  Biso   1.000  C
  C3257    1.0000 0.16170  0.63290  0.86710  Biso   1.000  C
  C3258    1.0000 0.63290  0.16170  0.86710  Biso   1.000  C
  C3259    1.0000 0.63290  0.63290  0.66170  Biso   1.000  C
  C3260    1.0000 0.36710  0.36710  0.66170  Biso   1.000  C
  C3261    1.0000 0.36710  0.83830  0.13290  Biso   1.000  C
  C3262    1.0000 0.36710  0.16170  0.86710  Biso   1.000  C
  C3263    1.0000 0.83830  0.36710  0.13290  Biso   1.000  C
  C3264    1.0000 0.16170  0.36710  0.86710  Biso   1.000  C
  O1      1.0000 0.99450  0.96814  0.96813  Biso   1.000  O
  O2      1.0000 0.01318  0.98682  0.98681  Biso   1.000  O
  O3      1.0000 0.99956  0.97319  0.93659  Biso   1.000  O
  O4      1.0000 0.01318  0.98682  0.92755  Biso   1.000  O
  O5      1.0000 0.01318  0.98682  0.90264  Biso   1.000  O
  O6      1.0000 0.02569  0.99933  0.88818  Biso   1.000  O
  O7      1.0000 0.02124  0.99487  0.86511  Biso   1.000  O
  O8      1.0000 0.02681  0.00045  0.79363  Biso   1.000  O
  O9      1.0000 0.01318  0.98682  0.80267  Biso   1.000  O
  O10      1.0000 0.01318  0.98682  0.82758  Biso   1.000  O
  O11      1.0000 0.00067  0.97431  0.84204  Biso   1.000  O
  O12      1.0000 0.00513  0.97876  0.86511  Biso   1.000  O
  O13      1.0000 0.02681  0.00045  0.93659  Biso   1.000  O
  O14      1.0000 0.00067  0.97431  0.88818  Biso   1.000  O
  O15      1.0000 0.99021  0.96385  0.89285  Biso   1.000  O
  O16      1.0000 0.99956  0.97319  0.79363  Biso   1.000  O
  O17      1.0000 0.02569  0.99933  0.84204  Biso   1.000  O
  O18      1.0000 0.03615  0.00979  0.83737  Biso   1.000  O
  O19      1.0000 0.03187  0.00550  0.96813  Biso   1.000  O
  O20      1.0000 0.06341  0.00045  0.97318  Biso   1.000  O
  O21      1.0000 0.07245  0.98682  0.98681  Biso   1.000  O
  O22      1.0000 0.09736  0.98682  0.98681  Biso   1.000  O
  O23      1.0000 0.11182  0.97431  0.99932  Biso   1.000  O
  O24      1.0000 0.13489  0.97876  0.99487  Biso   1.000  O
  O25      1.0000 0.20637  0.97319  0.00044  Biso   1.000  O
  O26      1.0000 0.19732  0.98682  0.98681  Biso   1.000  O
  O27      1.0000 0.17242  0.98682  0.98681  Biso   1.000  O
  O28      1.0000 0.15796  0.99933  0.97430  Biso   1.000  O
  O29      1.0000 0.13489  0.99487  0.97876  Biso   1.000  O
  O30      1.0000 0.06341  0.97319  0.00044  Biso   1.000  O
  O31      1.0000 0.11182  0.99933  0.97430  Biso   1.000  O
  O32      1.0000 0.10715  0.00979  0.96384  Biso   1.000  O
  O33      1.0000 0.20637  0.00045  0.97318  Biso   1.000  O
  O34      1.0000 0.15796  0.97431  0.99932  Biso   1.000  O
  O35      1.0000 0.16263  0.96385  0.00978  Biso   1.000  O
  O36      1.0000 0.03187  0.96814  0.00550  Biso   1.000  O
  O37      1.0000 0.02681  0.93659  0.00044  Biso   1.000  O
  O38      1.0000 0.01318  0.92755  0.98681  Biso   1.000  O
  O39      1.0000 0.01318  0.90265  0.98681  Biso   1.000  O
  O40      1.0000 0.00067  0.88818  0.97430  Biso   1.000  O
  O41      1.0000 0.00513  0.86511  0.97876  Biso   1.000  O
  O42      1.0000 0.99956  0.79364  0.97318  Biso   1.000  O
  O43      1.0000 0.01318  0.80268  0.98681  Biso   1.000  O
  O44      1.0000 0.01318  0.82758  0.98681  Biso   1.000  O
  O45      1.0000 0.02569  0.84204  0.99932  Biso   1.000  O
  O46      1.0000 0.02124  0.86511  0.99487  Biso   1.000  O
  O47      1.0000 0.99956  0.93659  0.97318  Biso   1.000  O
  O48      1.0000 0.02569  0.88818  0.99932  Biso   1.000  O
  O49      1.0000 0.03615  0.89285  0.00978  Biso   1.000  O
  O50      1.0000 0.02681  0.79364  0.00044  Biso   1.000  O
  O51      1.0000 0.00067  0.84204  0.97430  Biso   1.000  O
  O52      1.0000 0.99021  0.83737  0.96384  Biso   1.000  O
  O53      1.0000 0.99450  0.96814  0.76209  Biso   1.000  O
  O54      1.0000 0.99450  0.76209  0.96813  Biso   1.000  O
  O55      1.0000 0.23791  0.96814  0.00550  Biso   1.000  O
  O56      1.0000 0.03187  0.76209  0.00550  Biso   1.000  O
  O57      1.0000 0.23791  0.00550  0.96813  Biso   1.000  O
  O58      1.0000 0.03187  0.00550  0.76209  Biso   1.000  O
  O59      1.0000 0.99450  0.00550  0.00550  Biso   1.000  O
  O60      1.0000 0.01318  0.98682  0.74340  Biso   1.000  O
  O61      1.0000 0.99956  0.93659  0.75703  Biso   1.000  O
  O62      1.0000 0.02681  0.97319  0.03704  Biso   1.000  O
  O63      1.0000 0.96296  0.97319  0.75703  Biso   1.000  O
  O64      1.0000 0.96296  0.97319  0.97318  Biso   1.000  O
  O65      1.0000 0.02681  0.03704  0.97318  Biso   1.000  O
  O66      1.0000 0.26465  0.99487  0.62170  Biso   1.000  O
  O67      1.0000 0.27022  0.00045  0.03704  Biso   1.000  O
  O68      1.0000 0.25659  0.98682  0.04608  Biso   1.000  O
  O69      1.0000 0.25659  0.98682  0.07099  Biso   1.000  O
  O70      1.0000 0.24408  0.97431  0.08545  Biso   1.000  O
  O71      1.0000 0.24854  0.97876  0.62170  Biso   1.000  O
  O72      1.0000 0.24296  0.97319  0.03704  Biso   1.000  O
  O73      1.0000 0.26910  0.99933  0.08545  Biso   1.000  O
  O74      1.0000 0.27956  0.00979  0.08078  Biso   1.000  O
  O75      1.0000 0.27527  0.00550  0.00550  Biso   1.000  O
  O76      1.0000 0.25659  0.98682  0.98681  Biso   1.000  O
  O77      1.0000 0.24296  0.93659  0.00044  Biso   1.000  O
  O78      1.0000 0.89148  0.97876  0.75146  Biso   1.000  O
  O79      1.0000 0.95392  0.98682  0.74340  Biso   1.000  O
  O80      1.0000 0.92901  0.98682  0.74340  Biso   1.000  O
  O81      1.0000 0.91455  0.99933  0.73089  Biso   1.000  O
  O82      1.0000 0.89148  0.99487  0.73535  Biso   1.000  O
  O83      1.0000 0.96296  0.00045  0.72978  Biso   1.000  O
  O84      1.0000 0.91455  0.97431  0.75591  Biso   1.000  O
  O85      1.0000 0.91922  0.96385  0.76637  Biso   1.000  O
  O86      1.0000 0.99450  0.00550  0.72472  Biso   1.000  O
  O87      1.0000 0.23791  0.96814  0.72472  Biso   1.000  O
  O88      1.0000 0.25659  0.98682  0.74340  Biso   1.000  O
  O89      1.0000 0.24296  0.97319  0.69318  Biso   1.000  O
  O90      1.0000 0.25659  0.98682  0.68414  Biso   1.000  O
  O91      1.0000 0.25659  0.98682  0.65923  Biso   1.000  O
  O92      1.0000 0.26910  0.99933  0.64477  Biso   1.000  O
  O93      1.0000 0.27022  0.00045  0.69318  Biso   1.000  O
  O94      1.0000 0.24408  0.97431  0.64477  Biso   1.000  O
  O95      1.0000 0.23362  0.96385  0.64944  Biso   1.000  O
  O96      1.0000 0.27527  0.00550  0.72472  Biso   1.000  O
  O97      1.0000 0.30682  0.00045  0.72978  Biso   1.000  O
  O98      1.0000 0.31586  0.98682  0.74340  Biso   1.000  O
  O99      1.0000 0.34076  0.98682  0.74340  Biso   1.000  O
  O100      1.0000 0.35523  0.97431  0.75591  Biso   1.000  O
  O101      1.0000 0.30682  0.97319  0.75703  Biso   1.000  O
  O102      1.0000 0.35523  0.99933  0.73089  Biso   1.000  O
  O103      1.0000 0.35056  0.00979  0.72043  Biso   1.000  O
  O104      1.0000 0.27527  0.96814  0.76209  Biso   1.000  O
  O105      1.0000 0.27022  0.93659  0.75703  Biso   1.000  O
  O106      1.0000 0.25659  0.92755  0.74340  Biso   1.000  O
  O107      1.0000 0.25659  0.90265  0.74340  Biso   1.000  O
  O108      1.0000 0.24408  0.88818  0.73089  Biso   1.000  O
  O109      1.0000 0.24854  0.86511  0.73535  Biso   1.000  O
  O110      1.0000 0.24296  0.79364  0.72978  Biso   1.000  O
  O111      1.0000 0.25659  0.80268  0.74340  Biso   1.000  O
  O112      1.0000 0.25659  0.82758  0.74340  Biso   1.000  O
  O113      1.0000 0.26910  0.84204  0.75591  Biso   1.000  O
  O114      1.0000 0.26465  0.86511  0.75146  Biso   1.000  O
  O115      1.0000 0.24296  0.93659  0.72978  Biso   1.000  O
  O116      1.0000 0.26910  0.88818  0.75591  Biso   1.000  O
  O117      1.0000 0.27956  0.89285  0.76637  Biso   1.000  O
  O118      1.0000 0.27022  0.79364  0.75703  Biso   1.000  O
  O119      1.0000 0.24408  0.84204  0.73089  Biso   1.000  O
  O120      1.0000 0.23362  0.83737  0.72043  Biso   1.000  O
  O121      1.0000 0.23791  0.76209  0.72472  Biso   1.000  O
  O122      1.0000 0.27527  0.76209  0.76209  Biso   1.000  O
  O123      1.0000 0.23791  0.00550  0.76209  Biso   1.000  O
  O124      1.0000 0.27022  0.97319  0.79363  Biso   1.000  O
  O125      1.0000 0.20637  0.97319  0.72978  Biso   1.000  O
  O126      1.0000 0.27022  0.03704  0.72978  Biso   1.000  O
  O127      1.0000 0.24854  0.62170  0.97876  Biso   1.000  O
  O128      1.0000 0.24296  0.03704  0.97318  Biso   1.000  O
  O129      1.0000 0.25659  0.04609  0.98681  Biso   1.000  O
  O130      1.0000 0.25659  0.07099  0.98681  Biso   1.000  O
  O131      1.0000 0.26910  0.08545  0.99932  Biso   1.000  O
  O132      1.0000 0.26465  0.62170  0.99487  Biso   1.000  O
  O133      1.0000 0.27022  0.03704  0.00044  Biso   1.000  O
  O134      1.0000 0.24408  0.08545  0.97430  Biso   1.000  O
  O135      1.0000 0.23362  0.08078  0.96384  Biso   1.000  O
  O136      1.0000 0.89148  0.73535  0.99487  Biso   1.000  O
  O137      1.0000 0.96296  0.72978  0.00044  Biso   1.000  O
  O138      1.0000 0.95392  0.74341  0.98681  Biso   1.000  O
  O139      1.0000 0.92901  0.74341  0.98681  Biso   1.000  O
  O140      1.0000 0.91455  0.75592  0.97430  Biso   1.000  O
  O141      1.0000 0.89148  0.75147  0.97876  Biso   1.000  O
  O142      1.0000 0.96296  0.75704  0.97318  Biso   1.000  O
  O143      1.0000 0.91455  0.73090  0.99932  Biso   1.000  O
  O144      1.0000 0.91922  0.72044  0.00978  Biso   1.000  O
  O145      1.0000 0.99450  0.72473  0.00550  Biso   1.000  O
  O146      1.0000 0.23791  0.72473  0.96813  Biso   1.000  O
  O147      1.0000 0.25659  0.74341  0.98681  Biso   1.000  O
  O148      1.0000 0.24296  0.72978  0.93659  Biso   1.000  O
  O149      1.0000 0.25659  0.74341  0.92755  Biso   1.000  O
  O150      1.0000 0.25659  0.74341  0.90264  Biso   1.000  O
  O151      1.0000 0.26910  0.75592  0.88818  Biso   1.000  O
  O152      1.0000 0.26465  0.75147  0.86511  Biso   1.000  O
  O153      1.0000 0.27022  0.75704  0.79363  Biso   1.000  O
  O154      1.0000 0.25659  0.74341  0.80267  Biso   1.000  O
  O155      1.0000 0.25659  0.74341  0.82758  Biso   1.000  O
  O156      1.0000 0.24408  0.73090  0.84204  Biso   1.000  O
  O157      1.0000 0.24854  0.73535  0.86511  Biso   1.000  O
  O158      1.0000 0.27022  0.75704  0.93659  Biso   1.000  O
  O159      1.0000 0.24408  0.73090  0.88818  Biso   1.000  O
  O160      1.0000 0.23362  0.72044  0.89285  Biso   1.000  O
  O161      1.0000 0.24296  0.72978  0.79363  Biso   1.000  O
  O162      1.0000 0.26910  0.75592  0.84204  Biso   1.000  O
  O163      1.0000 0.27956  0.76638  0.83737  Biso   1.000  O
  O164      1.0000 0.27527  0.76209  0.96813  Biso   1.000  O
  O165      1.0000 0.30682  0.75704  0.97318  Biso   1.000  O
  O166      1.0000 0.31586  0.74341  0.98681  Biso   1.000  O
  O167      1.0000 0.34076  0.74341  0.98681  Biso   1.000  O
  O168      1.0000 0.35523  0.73090  0.99932  Biso   1.000  O
  O169      1.0000 0.30682  0.72978  0.00044  Biso   1.000  O
  O170      1.0000 0.35523  0.75592  0.97430  Biso   1.000  O
  O171      1.0000 0.35056  0.76638  0.96384  Biso   1.000  O
  O172      1.0000 0.27527  0.72473  0.00550  Biso   1.000  O
  O173      1.0000 0.27022  0.69318  0.00044  Biso   1.000  O
  O174      1.0000 0.25659  0.68414  0.98681  Biso   1.000  O
  O175      1.0000 0.25659  0.65924  0.98681  Biso   1.000  O
  O176      1.0000 0.24408  0.64477  0.97430  Biso   1.000  O
  O177      1.0000 0.24296  0.69318  0.97318  Biso   1.000  O
  O178      1.0000 0.26910  0.64477  0.99932  Biso   1.000  O
  O179      1.0000 0.27956  0.64944  0.00978  Biso   1.000  O
  O180      1.0000 0.23791  0.72473  0.76209  Biso   1.000  O
  O181      1.0000 0.23791  0.76209  0.00550  Biso   1.000  O
  O182      1.0000 0.25659  0.74341  0.74340  Biso   1.000  O
  O183      1.0000 0.24296  0.69318  0.75703  Biso   1.000  O
  O184      1.0000 0.27022  0.72978  0.03704  Biso   1.000  O
  O185      1.0000 0.20637  0.72978  0.75703  Biso   1.000  O
  O186      1.0000 0.20637  0.72978  0.97318  Biso   1.000  O
  O187      1.0000 0.27022  0.79364  0.97318  Biso   1.000  O
  O188      1.0000 0.00513  0.62170  0.73535  Biso   1.000  O
  O189      1.0000 0.99956  0.03704  0.72978  Biso   1.000  O
  O190      1.0000 0.01318  0.04609  0.74340  Biso   1.000  O
  O191      1.0000 0.01318  0.07099  0.74340  Biso   1.000  O
  O192      1.0000 0.02569  0.08545  0.75591  Biso   1.000  O
  O193      1.0000 0.02124  0.62170  0.75146  Biso   1.000  O
  O194      1.0000 0.02681  0.03704  0.75703  Biso   1.000  O
  O195      1.0000 0.00067  0.08545  0.73089  Biso   1.000  O
  O196      1.0000 0.99021  0.08078  0.72043  Biso   1.000  O
  O197      1.0000 0.02124  0.75147  0.62170  Biso   1.000  O
  O198      1.0000 0.02681  0.75704  0.03704  Biso   1.000  O
  O199      1.0000 0.01318  0.74341  0.04608  Biso   1.000  O
  O200      1.0000 0.01318  0.74341  0.07099  Biso   1.000  O
  O201      1.0000 0.00067  0.73090  0.08545  Biso   1.000  O
  O202      1.0000 0.00513  0.73535  0.62170  Biso   1.000  O
  O203      1.0000 0.99956  0.72978  0.03704  Biso   1.000  O
  O204      1.0000 0.02569  0.75592  0.08545  Biso   1.000  O
  O205      1.0000 0.03615  0.76638  0.08078  Biso   1.000  O
  O206      1.0000 0.01318  0.74341  0.98681  Biso   1.000  O
  O207      1.0000 0.99956  0.69318  0.00044  Biso   1.000  O
  O208      1.0000 0.99450  0.72473  0.72472  Biso   1.000  O
  O209      1.0000 0.01318  0.74341  0.74340  Biso   1.000  O
  O210      1.0000 0.99956  0.72978  0.69318  Biso   1.000  O
  O211      1.0000 0.01318  0.74341  0.68414  Biso   1.000  O
  O212      1.0000 0.01318  0.74341  0.65923  Biso   1.000  O
  O213      1.0000 0.02569  0.75592  0.64477  Biso   1.000  O
  O214      1.0000 0.02681  0.75704  0.69318  Biso   1.000  O
  O215      1.0000 0.00067  0.73090  0.64477  Biso   1.000  O
  O216      1.0000 0.99021  0.72044  0.64944  Biso   1.000  O
  O217      1.0000 0.03187  0.76209  0.72472  Biso   1.000  O
  O218      1.0000 0.06341  0.75704  0.72978  Biso   1.000  O
  O219      1.0000 0.07245  0.74341  0.74340  Biso   1.000  O
  O220      1.0000 0.09736  0.74341  0.74340  Biso   1.000  O
  O221      1.0000 0.11182  0.73090  0.75591  Biso   1.000  O
  O222      1.0000 0.13489  0.73535  0.75146  Biso   1.000  O
  O223      1.0000 0.19732  0.74341  0.74340  Biso   1.000  O
  O224      1.0000 0.17242  0.74341  0.74340  Biso   1.000  O
  O225      1.0000 0.15796  0.75592  0.73089  Biso   1.000  O
  O226      1.0000 0.13489  0.75147  0.73535  Biso   1.000  O
  O227      1.0000 0.06341  0.72978  0.75703  Biso   1.000  O
  O228      1.0000 0.11182  0.75592  0.73089  Biso   1.000  O
  O229      1.0000 0.10715  0.76638  0.72043  Biso   1.000  O
  O230      1.0000 0.20637  0.75704  0.72978  Biso   1.000  O
  O231      1.0000 0.15796  0.73090  0.75591  Biso   1.000  O
  O232      1.0000 0.16263  0.72044  0.76637  Biso   1.000  O
  O233      1.0000 0.03187  0.72473  0.76209  Biso   1.000  O
  O234      1.0000 0.02681  0.69318  0.75703  Biso   1.000  O
  O235      1.0000 0.01318  0.68414  0.74340  Biso   1.000  O
  O236      1.0000 0.01318  0.65924  0.74340  Biso   1.000  O
  O237      1.0000 0.00067  0.64477  0.73089  Biso   1.000  O
  O238      1.0000 0.99956  0.69318  0.72978  Biso   1.000  O
  O239      1.0000 0.02569  0.64477  0.75591  Biso   1.000  O
  O240      1.0000 0.03615  0.64945  0.76637  Biso   1.000  O
  O241      1.0000 0.99450  0.76209  0.76209  Biso   1.000  O
  O242      1.0000 0.02681  0.72978  0.79363  Biso   1.000  O
  O243      1.0000 0.96296  0.72978  0.72978  Biso   1.000  O
  O244      1.0000 0.02681  0.79364  0.72978  Biso   1.000  O
  O245      1.0000 0.27956  0.76638  0.89285  Biso   1.000  O
  O246      1.0000 0.23362  0.72044  0.83737  Biso   1.000  O
  O247      1.0000 0.19732  0.74341  0.98681  Biso   1.000  O
  O248      1.0000 0.17242  0.74341  0.98681  Biso   1.000  O
  O249      1.0000 0.15796  0.75592  0.99932  Biso   1.000  O
  O250      1.0000 0.13489  0.75147  0.99487  Biso   1.000  O
  O251      1.0000 0.06341  0.75704  0.00044  Biso   1.000  O
  O252      1.0000 0.07245  0.74341  0.98681  Biso   1.000  O
  O253      1.0000 0.09736  0.74341  0.98681  Biso   1.000  O
  O254      1.0000 0.11182  0.73090  0.97430  Biso   1.000  O
  O255      1.0000 0.13489  0.73535  0.97876  Biso   1.000  O
  O256      1.0000 0.20637  0.75704  0.00044  Biso   1.000  O
  O257      1.0000 0.15796  0.73090  0.97430  Biso   1.000  O
  O258      1.0000 0.16263  0.72044  0.96384  Biso   1.000  O
  O259      1.0000 0.06341  0.72978  0.97318  Biso   1.000  O
  O260      1.0000 0.11182  0.75592  0.99932  Biso   1.000  O
  O261      1.0000 0.10715  0.76638  0.00978  Biso   1.000  O
  O262      1.0000 0.24296  0.79364  0.00044  Biso   1.000  O
  O263      1.0000 0.25659  0.80268  0.98681  Biso   1.000  O
  O264      1.0000 0.25659  0.82758  0.98681  Biso   1.000  O
  O265      1.0000 0.26910  0.84204  0.97430  Biso   1.000  O
  O266      1.0000 0.26465  0.86511  0.97876  Biso   1.000  O
  O267      1.0000 0.27022  0.93659  0.97318  Biso   1.000  O
  O268      1.0000 0.25659  0.92755  0.98681  Biso   1.000  O
  O269      1.0000 0.25659  0.90265  0.98681  Biso   1.000  O
  O270      1.0000 0.24408  0.88818  0.99932  Biso   1.000  O
  O271      1.0000 0.24854  0.86511  0.99487  Biso   1.000  O
  O272      1.0000 0.24408  0.84204  0.99932  Biso   1.000  O
  O273      1.0000 0.23362  0.83737  0.00978  Biso   1.000  O
  O274      1.0000 0.26910  0.88818  0.97430  Biso   1.000  O
  O275      1.0000 0.27956  0.89285  0.96384  Biso   1.000  O
  O276      1.0000 0.27527  0.96814  0.96813  Biso   1.000  O
  O277      1.0000 0.03187  0.72473  0.96813  Biso   1.000  O
  O278      1.0000 0.24296  0.75704  0.03704  Biso   1.000  O
  O279      1.0000 0.30682  0.75704  0.75703  Biso   1.000  O
  O280      1.0000 0.99956  0.75704  0.79363  Biso   1.000  O
  O281      1.0000 0.01318  0.74341  0.80267  Biso   1.000  O
  O282      1.0000 0.01318  0.74341  0.82758  Biso   1.000  O
  O283      1.0000 0.02569  0.73090  0.84204  Biso   1.000  O
  O284      1.0000 0.02124  0.73535  0.86511  Biso   1.000  O
  O285      1.0000 0.02681  0.72978  0.93659  Biso   1.000  O
  O286      1.0000 0.01318  0.74341  0.92755  Biso   1.000  O
  O287      1.0000 0.01318  0.74341  0.90264  Biso   1.000  O
  O288      1.0000 0.00067  0.75592  0.88818  Biso   1.000  O
  O289      1.0000 0.00513  0.75147  0.86511  Biso   1.000  O
  O290      1.0000 0.00067  0.75592  0.84204  Biso   1.000  O
  O291      1.0000 0.99021  0.76638  0.83737  Biso   1.000  O
  O292      1.0000 0.99956  0.75704  0.93659  Biso   1.000  O
  O293      1.0000 0.02569  0.73090  0.88818  Biso   1.000  O
  O294      1.0000 0.03615  0.72044  0.89285  Biso   1.000  O
  O295      1.0000 0.10715  0.72044  0.76637  Biso   1.000  O
  O296      1.0000 0.16263  0.76638  0.72043  Biso   1.000  O
  O297      1.0000 0.01318  0.80268  0.74340  Biso   1.000  O
  O298      1.0000 0.01318  0.82758  0.74340  Biso   1.000  O
  O299      1.0000 0.00067  0.84204  0.75591  Biso   1.000  O
  O300      1.0000 0.00513  0.86511  0.75146  Biso   1.000  O
  O301      1.0000 0.01318  0.92755  0.74340  Biso   1.000  O
  O302      1.0000 0.01318  0.90265  0.74340  Biso   1.000  O
  O303      1.0000 0.02569  0.88818  0.73089  Biso   1.000  O
  O304      1.0000 0.02124  0.86511  0.73535  Biso   1.000  O
  O305      1.0000 0.99956  0.79364  0.75703  Biso   1.000  O
  O306      1.0000 0.02569  0.84204  0.73089  Biso   1.000  O
  O307      1.0000 0.03615  0.83737  0.72043  Biso   1.000  O
  O308      1.0000 0.02681  0.93659  0.72978  Biso   1.000  O
  O309      1.0000 0.00067  0.88818  0.75591  Biso   1.000  O
  O310      1.0000 0.99021  0.89285  0.76637  Biso   1.000  O
  O311      1.0000 0.03187  0.96814  0.72472  Biso   1.000  O
  O312      1.0000 0.96296  0.75704  0.75703  Biso   1.000  O
  O313      1.0000 0.03615  0.00979  0.89285  Biso   1.000  O
  O314      1.0000 0.99021  0.96385  0.83737  Biso   1.000  O
  O315      1.0000 0.95392  0.98682  0.98681  Biso   1.000  O
  O316      1.0000 0.92901  0.98682  0.98681  Biso   1.000  O
  O317      1.0000 0.91455  0.99933  0.99932  Biso   1.000  O
  O318      1.0000 0.89148  0.99487  0.99487  Biso   1.000  O
  O319      1.0000 0.89148  0.97876  0.97876  Biso   1.000  O
  O320      1.0000 0.96296  0.00045  0.00044  Biso   1.000  O
  O321      1.0000 0.91455  0.97431  0.97430  Biso   1.000  O
  O322      1.0000 0.91922  0.96385  0.96384  Biso   1.000  O
  O323      1.0000 0.99956  0.03704  0.00044  Biso   1.000  O
  O324      1.0000 0.01318  0.04609  0.98681  Biso   1.000  O
  O325      1.0000 0.01318  0.07099  0.98681  Biso   1.000  O
  O326      1.0000 0.02569  0.08545  0.97430  Biso   1.000  O
  O327      1.0000 0.02124  0.62170  0.97876  Biso   1.000  O
  O328      1.0000 0.00513  0.62170  0.99487  Biso   1.000  O
  O329      1.0000 0.00067  0.08545  0.99932  Biso   1.000  O
  O330      1.0000 0.99021  0.08078  0.00978  Biso   1.000  O
  O331      1.0000 0.99956  0.00045  0.03704  Biso   1.000  O
  O332      1.0000 0.06341  0.00045  0.75703  Biso   1.000  O
  O333      1.0000 0.30682  0.00045  0.00044  Biso   1.000  O
  O334      1.0000 0.31586  0.98682  0.98681  Biso   1.000  O
  O335      1.0000 0.34076  0.98682  0.98681  Biso   1.000  O
  O336      1.0000 0.35523  0.97431  0.97430  Biso   1.000  O
  O337      1.0000 0.30682  0.97319  0.97318  Biso   1.000  O
  O338      1.0000 0.35523  0.99933  0.99932  Biso   1.000  O
  O339      1.0000 0.35056  0.00979  0.00978  Biso   1.000  O
  O340      1.0000 0.02681  0.69318  0.97318  Biso   1.000  O
  O341      1.0000 0.01318  0.68414  0.98681  Biso   1.000  O
  O342      1.0000 0.01318  0.65924  0.98681  Biso   1.000  O
  O343      1.0000 0.00067  0.64477  0.99932  Biso   1.000  O
  O344      1.0000 0.02569  0.64477  0.97430  Biso   1.000  O
  O345      1.0000 0.03615  0.64945  0.96384  Biso   1.000  O
  O346      1.0000 0.25659  0.98682  0.80267  Biso   1.000  O
  O347      1.0000 0.25659  0.98682  0.82758  Biso   1.000  O
  O348      1.0000 0.24408  0.99933  0.84204  Biso   1.000  O
  O349      1.0000 0.24854  0.99487  0.86511  Biso   1.000  O
  O350      1.0000 0.24296  0.00045  0.93659  Biso   1.000  O
  O351      1.0000 0.25659  0.98682  0.92755  Biso   1.000  O
  O352      1.0000 0.25659  0.98682  0.90264  Biso   1.000  O
  O353      1.0000 0.26910  0.97431  0.88818  Biso   1.000  O
  O354      1.0000 0.26465  0.97876  0.86511  Biso   1.000  O
  O355      1.0000 0.24296  0.00045  0.79363  Biso   1.000  O
  O356      1.0000 0.26910  0.97431  0.84204  Biso   1.000  O
  O357      1.0000 0.27956  0.96385  0.83737  Biso   1.000  O
  O358      1.0000 0.27022  0.97319  0.93659  Biso   1.000  O
  O359      1.0000 0.24408  0.99933  0.88818  Biso   1.000  O
  O360      1.0000 0.23362  0.00979  0.89285  Biso   1.000  O
  O361      1.0000 0.20637  0.00045  0.75703  Biso   1.000  O
  O362      1.0000 0.19732  0.98682  0.74340  Biso   1.000  O
  O363      1.0000 0.17242  0.98682  0.74340  Biso   1.000  O
  O364      1.0000 0.15796  0.97431  0.73089  Biso   1.000  O
  O365      1.0000 0.13489  0.97876  0.73535  Biso   1.000  O
  O366      1.0000 0.06341  0.97319  0.72978  Biso   1.000  O
  O367      1.0000 0.07245  0.98682  0.74340  Biso   1.000  O
  O368      1.0000 0.09736  0.98682  0.74340  Biso   1.000  O
  O369      1.0000 0.11182  0.99933  0.75591  Biso   1.000  O
  O370      1.0000 0.13489  0.99487  0.75146  Biso   1.000  O
  O371      1.0000 0.15796  0.99933  0.75591  Biso   1.000  O
  O372      1.0000 0.16263  0.00979  0.76637  Biso   1.000  O
  O373      1.0000 0.11182  0.97431  0.73089  Biso   1.000  O
  O374      1.0000 0.10715  0.96385  0.72043  Biso   1.000  O
  O375      1.0000 0.23362  0.89285  0.72043  Biso   1.000  O
  O376      1.0000 0.27956  0.83737  0.76637  Biso   1.000  O
  O377      1.0000 0.24296  0.03704  0.75703  Biso   1.000  O
  O378      1.0000 0.91922  0.00979  0.72043  Biso   1.000  O
  O379      1.0000 0.23362  0.00979  0.83737  Biso   1.000  O
  O380      1.0000 0.27956  0.96385  0.89285  Biso   1.000  O
  O381      1.0000 0.35056  0.96385  0.76637  Biso   1.000  O
  O382      1.0000 0.25659  0.04609  0.74340  Biso   1.000  O
  O383      1.0000 0.25659  0.07099  0.74340  Biso   1.000  O
  O384      1.0000 0.24408  0.08545  0.75591  Biso   1.000  O
  O385      1.0000 0.24854  0.62170  0.75146  Biso   1.000  O
  O386      1.0000 0.26465  0.62170  0.73535  Biso   1.000  O
  O387      1.0000 0.26910  0.08545  0.73089  Biso   1.000  O
  O388      1.0000 0.27956  0.08078  0.72043  Biso   1.000  O
  O389      1.0000 0.25659  0.68414  0.74340  Biso   1.000  O
  O390      1.0000 0.25659  0.65924  0.74340  Biso   1.000  O
  O391      1.0000 0.26910  0.64477  0.73089  Biso   1.000  O
  O392      1.0000 0.27022  0.69318  0.72978  Biso   1.000  O
  O393      1.0000 0.24408  0.64477  0.75591  Biso   1.000  O
  O394      1.0000 0.23362  0.64945  0.76637  Biso   1.000  O
  O395      1.0000 0.27527  0.72473  0.72472  Biso   1.000  O
  O396      1.0000 0.91922  0.76638  0.96384  Biso   1.000  O
  O397      1.0000 0.25659  0.74341  0.04608  Biso   1.000  O
  O398      1.0000 0.25659  0.74341  0.07099  Biso   1.000  O
  O399      1.0000 0.26910  0.73090  0.08545  Biso   1.000  O
  O400      1.0000 0.26465  0.73535  0.62170  Biso   1.000  O
  O401      1.0000 0.24854  0.75147  0.62170  Biso   1.000  O
  O402      1.0000 0.24408  0.75592  0.08545  Biso   1.000  O
  O403      1.0000 0.23362  0.76638  0.08078  Biso   1.000  O
  O404      1.0000 0.35056  0.72044  0.00978  Biso   1.000  O
  O405      1.0000 0.27956  0.83737  0.96384  Biso   1.000  O
  O406      1.0000 0.23362  0.89285  0.00978  Biso   1.000  O
  O407      1.0000 0.27022  0.72978  0.69318  Biso   1.000  O
  O408      1.0000 0.25659  0.74341  0.68414  Biso   1.000  O
  O409      1.0000 0.25659  0.74341  0.65923  Biso   1.000  O
  O410      1.0000 0.24408  0.75592  0.64477  Biso   1.000  O
  O411      1.0000 0.24296  0.75704  0.69318  Biso   1.000  O
  O412      1.0000 0.26910  0.73090  0.64477  Biso   1.000  O
  O413      1.0000 0.27956  0.72044  0.64944  Biso   1.000  O
  O414      1.0000 0.99021  0.72044  0.08078  Biso   1.000  O
  O415      1.0000 0.03615  0.76638  0.64944  Biso   1.000  O
  O416      1.0000 0.95392  0.74341  0.74340  Biso   1.000  O
  O417      1.0000 0.92901  0.74341  0.74340  Biso   1.000  O
  O418      1.0000 0.91455  0.75592  0.75591  Biso   1.000  O
  O419      1.0000 0.89148  0.75147  0.75146  Biso   1.000  O
  O420      1.0000 0.89148  0.73535  0.73535  Biso   1.000  O
  O421      1.0000 0.91455  0.73090  0.73089  Biso   1.000  O
  O422      1.0000 0.91922  0.72044  0.72043  Biso   1.000  O
  O423      1.0000 0.99021  0.83737  0.76637  Biso   1.000  O
  O424      1.0000 0.03615  0.89285  0.72043  Biso   1.000  O
  O425      1.0000 0.31586  0.74341  0.74340  Biso   1.000  O
  O426      1.0000 0.34076  0.74341  0.74340  Biso   1.000  O
  O427      1.0000 0.35523  0.73090  0.73089  Biso   1.000  O
  O428      1.0000 0.30682  0.72978  0.72978  Biso   1.000  O
  O429      1.0000 0.35523  0.75592  0.75591  Biso   1.000  O
  O430      1.0000 0.35056  0.76638  0.76637  Biso   1.000  O
  O431      1.0000 0.23362  0.96385  0.08078  Biso   1.000  O
  O432      1.0000 0.27956  0.00979  0.64944  Biso   1.000  O
  O433      1.0000 0.16263  0.96385  0.72043  Biso   1.000  O
  O434      1.0000 0.10715  0.00979  0.76637  Biso   1.000  O
  O435      1.0000 0.23362  0.08078  0.76637  Biso   1.000  O
  O436      1.0000 0.27956  0.64945  0.72043  Biso   1.000  O
  O437      1.0000 0.27956  0.08078  0.00978  Biso   1.000  O
  O438      1.0000 0.27956  0.72044  0.08078  Biso   1.000  O
  O439      1.0000 0.16263  0.76638  0.00978  Biso   1.000  O
  O440      1.0000 0.10715  0.72044  0.96384  Biso   1.000  O
  O441      1.0000 0.23362  0.64944  0.96384  Biso   1.000  O
  O442      1.0000 0.23362  0.76638  0.64944  Biso   1.000  O
  O443      1.0000 0.03615  0.08078  0.76637  Biso   1.000  O
  O444      1.0000 0.03615  0.72044  0.83737  Biso   1.000  O
  O445      1.0000 0.99021  0.76638  0.89285  Biso   1.000  O
  O446      1.0000 0.91922  0.76638  0.76637  Biso   1.000  O
  O447      1.0000 0.99021  0.64945  0.72043  Biso   1.000  O
  O448      1.0000 0.35056  0.72044  0.72043  Biso   1.000  O
  O449      1.0000 0.01318  0.98682  0.04608  Biso   1.000  O
  O450      1.0000 0.01318  0.98682  0.07099  Biso   1.000  O
  O451      1.0000 0.02569  0.97431  0.08545  Biso   1.000  O
  O452      1.0000 0.02124  0.97876  0.62170  Biso   1.000  O
  O453      1.0000 0.00513  0.99487  0.62170  Biso   1.000  O
  O454      1.0000 0.00067  0.99933  0.08545  Biso   1.000  O
  O455      1.0000 0.99021  0.00979  0.08078  Biso   1.000  O
  O456      1.0000 0.10715  0.96385  0.00978  Biso   1.000  O
  O457      1.0000 0.16263  0.00979  0.96384  Biso   1.000  O
  O458      1.0000 0.03615  0.08078  0.96384  Biso   1.000  O
  O459      1.0000 0.02681  0.97319  0.69318  Biso   1.000  O
  O460      1.0000 0.01318  0.98682  0.68414  Biso   1.000  O
  O461      1.0000 0.01318  0.98682  0.65923  Biso   1.000  O
  O462      1.0000 0.00067  0.99933  0.64477  Biso   1.000  O
  O463      1.0000 0.99956  0.00045  0.69318  Biso   1.000  O
  O464      1.0000 0.02569  0.97431  0.64477  Biso   1.000  O
  O465      1.0000 0.03615  0.96385  0.64944  Biso   1.000  O
  O466      1.0000 0.99021  0.64945  0.00978  Biso   1.000  O
  O467      1.0000 0.03615  0.96385  0.08078  Biso   1.000  O
  O468      1.0000 0.91922  0.00979  0.00978  Biso   1.000  O
  O469      1.0000 0.99021  0.89285  0.96384  Biso   1.000  O
  O470      1.0000 0.03615  0.83737  0.00978  Biso   1.000  O
  O471      1.0000 0.35056  0.96385  0.96384  Biso   1.000  O
  O472      1.0000 0.48132  0.96814  0.96813  Biso   1.000  O
  O473      1.0000 0.50000  0.98682  0.98681  Biso   1.000  O
  O474      1.0000 0.48637  0.97319  0.93659  Biso   1.000  O
  O475      1.0000 0.50000  0.98682  0.92755  Biso   1.000  O
  O476      1.0000 0.50000  0.98682  0.90264  Biso   1.000  O
  O477      1.0000 0.51251  0.99933  0.88818  Biso   1.000  O
  O478      1.0000 0.50806  0.99487  0.86511  Biso   1.000  O
  O479      1.0000 0.51363  0.00045  0.79363  Biso   1.000  O
  O480      1.0000 0.50000  0.98682  0.80267  Biso   1.000  O
  O481      1.0000 0.50000  0.98682  0.82758  Biso   1.000  O
  O482      1.0000 0.48749  0.97431  0.84204  Biso   1.000  O
  O483      1.0000 0.49194  0.97876  0.86511  Biso   1.000  O
  O484      1.0000 0.51363  0.00045  0.93659  Biso   1.000  O
  O485      1.0000 0.48749  0.97431  0.88818  Biso   1.000  O
  O486      1.0000 0.47703  0.96385  0.89285  Biso   1.000  O
  O487      1.0000 0.48637  0.97319  0.79363  Biso   1.000  O
  O488      1.0000 0.51251  0.99933  0.84204  Biso   1.000  O
  O489      1.0000 0.52297  0.00979  0.83737  Biso   1.000  O
  O490      1.0000 0.51868  0.00550  0.96813  Biso   1.000  O
  O491      1.0000 0.55023  0.00045  0.97318  Biso   1.000  O
  O492      1.0000 0.55927  0.98682  0.98681  Biso   1.000  O
  O493      1.0000 0.58417  0.98682  0.98681  Biso   1.000  O
  O494      1.0000 0.59864  0.97431  0.99932  Biso   1.000  O
  O495      1.0000 0.62171  0.97876  0.99487  Biso   1.000  O
  O496      1.0000 0.69318  0.97319  0.00044  Biso   1.000  O
  O497      1.0000 0.68414  0.98682  0.98681  Biso   1.000  O
  O498      1.0000 0.65924  0.98682  0.98681  Biso   1.000  O
  O499      1.0000 0.64478  0.99933  0.97430  Biso   1.000  O
  O500      1.0000 0.62171  0.99487  0.97876  Biso   1.000  O
  O501      1.0000 0.55023  0.97319  0.00044  Biso   1.000  O
  O502      1.0000 0.59864  0.99933  0.97430  Biso   1.000  O
  O503      1.0000 0.59397  0.00979  0.96384  Biso   1.000  O
  O504      1.0000 0.69318  0.00045  0.97318  Biso   1.000  O
  O505      1.0000 0.64478  0.97431  0.99932  Biso   1.000  O
  O506      1.0000 0.64945  0.96385  0.00978  Biso   1.000  O
  O507      1.0000 0.51868  0.96814  0.00550  Biso   1.000  O
  O508      1.0000 0.51363  0.93659  0.00044  Biso   1.000  O
  O509      1.0000 0.50000  0.92755  0.98681  Biso   1.000  O
  O510      1.0000 0.50000  0.90265  0.98681  Biso   1.000  O
  O511      1.0000 0.48749  0.88818  0.97430  Biso   1.000  O
  O512      1.0000 0.49194  0.86511  0.97876  Biso   1.000  O
  O513      1.0000 0.48637  0.79364  0.97318  Biso   1.000  O
  O514      1.0000 0.50000  0.80268  0.98681  Biso   1.000  O
  O515      1.0000 0.50000  0.82758  0.98681  Biso   1.000  O
  O516      1.0000 0.51251  0.84204  0.99932  Biso   1.000  O
  O517      1.0000 0.50806  0.86511  0.99487  Biso   1.000  O
  O518      1.0000 0.48637  0.93659  0.97318  Biso   1.000  O
  O519      1.0000 0.51251  0.88818  0.99932  Biso   1.000  O
  O520      1.0000 0.52297  0.89285  0.00978  Biso   1.000  O
  O521      1.0000 0.51363  0.79364  0.00044  Biso   1.000  O
  O522      1.0000 0.48749  0.84204  0.97430  Biso   1.000  O
  O523      1.0000 0.47703  0.83737  0.96384  Biso   1.000  O
  O524      1.0000 0.48132  0.96814  0.76209  Biso   1.000  O
  O525      1.0000 0.48132  0.76209  0.96813  Biso   1.000  O
  O526      1.0000 0.72473  0.96814  0.00550  Biso   1.000  O
  O527      1.0000 0.51868  0.76209  0.00550  Biso   1.000  O
  O528      1.0000 0.72473  0.00550  0.96813  Biso   1.000  O
  O529      1.0000 0.51868  0.00550  0.76209  Biso   1.000  O
  O530      1.0000 0.48132  0.00550  0.00550  Biso   1.000  O
  O531      1.0000 0.50000  0.98682  0.74340  Biso   1.000  O
  O532      1.0000 0.48637  0.93659  0.75703  Biso   1.000  O
  O533      1.0000 0.51363  0.97319  0.03704  Biso   1.000  O
  O534      1.0000 0.44977  0.97319  0.75703  Biso   1.000  O
  O535      1.0000 0.44977  0.97319  0.97318  Biso   1.000  O
  O536      1.0000 0.51363  0.03704  0.97318  Biso   1.000  O
  O537      1.0000 0.75147  0.99487  0.62170  Biso   1.000  O
  O538      1.0000 0.75704  0.00045  0.03704  Biso   1.000  O
  O539      1.0000 0.74341  0.98682  0.04608  Biso   1.000  O
  O540      1.0000 0.74341  0.98682  0.07099  Biso   1.000  O
  O541      1.0000 0.73090  0.97431  0.08545  Biso   1.000  O
  O542      1.0000 0.73535  0.97876  0.62170  Biso   1.000  O
  O543      1.0000 0.72978  0.97319  0.03704  Biso   1.000  O
  O544      1.0000 0.75592  0.99933  0.08545  Biso   1.000  O
  O545      1.0000 0.76638  0.00979  0.08078  Biso   1.000  O
  O546      1.0000 0.76209  0.00550  0.00550  Biso   1.000  O
  O547      1.0000 0.74341  0.98682  0.98681  Biso   1.000  O
  O548      1.0000 0.72978  0.93659  0.00044  Biso   1.000  O
  O549      1.0000 0.37830  0.97876  0.75146  Biso   1.000  O
  O550      1.0000 0.44073  0.98682  0.74340  Biso   1.000  O
  O551      1.0000 0.41583  0.98682  0.74340  Biso   1.000  O
  O552      1.0000 0.40137  0.99933  0.73089  Biso   1.000  O
  O553      1.0000 0.37830  0.99487  0.73535  Biso   1.000  O
  O554      1.0000 0.44977  0.00045  0.72978  Biso   1.000  O
  O555      1.0000 0.40137  0.97431  0.75591  Biso   1.000  O
  O556      1.0000 0.40604  0.96385  0.76637  Biso   1.000  O
  O557      1.0000 0.48132  0.00550  0.72472  Biso   1.000  O
  O558      1.0000 0.72473  0.96814  0.72472  Biso   1.000  O
  O559      1.0000 0.74341  0.98682  0.74340  Biso   1.000  O
  O560      1.0000 0.72978  0.97319  0.69318  Biso   1.000  O
  O561      1.0000 0.74341  0.98682  0.68414  Biso   1.000  O
  O562      1.0000 0.74341  0.98682  0.65923  Biso   1.000  O
  O563      1.0000 0.75592  0.99933  0.64477  Biso   1.000  O
  O564      1.0000 0.75704  0.00045  0.69318  Biso   1.000  O
  O565      1.0000 0.73090  0.97431  0.64477  Biso   1.000  O
  O566      1.0000 0.72044  0.96385  0.64944  Biso   1.000  O
  O567      1.0000 0.76209  0.00550  0.72472  Biso   1.000  O
  O568      1.0000 0.79364  0.00045  0.72978  Biso   1.000  O
  O569      1.0000 0.80268  0.98682  0.74340  Biso   1.000  O
  O570      1.0000 0.82758  0.98682  0.74340  Biso   1.000  O
  O571      1.0000 0.84204  0.97431  0.75591  Biso   1.000  O
  O572      1.0000 0.79364  0.97319  0.75703  Biso   1.000  O
  O573      1.0000 0.84204  0.99933  0.73089  Biso   1.000  O
  O574      1.0000 0.83737  0.00979  0.72043  Biso   1.000  O
  O575      1.0000 0.76209  0.96814  0.76209  Biso   1.000  O
  O576      1.0000 0.75704  0.93659  0.75703  Biso   1.000  O
  O577      1.0000 0.74341  0.92755  0.74340  Biso   1.000  O
  O578      1.0000 0.74341  0.90265  0.74340  Biso   1.000  O
  O579      1.0000 0.73090  0.88818  0.73089  Biso   1.000  O
  O580      1.0000 0.73535  0.86511  0.73535  Biso   1.000  O
  O581      1.0000 0.72978  0.79364  0.72978  Biso   1.000  O
  O582      1.0000 0.74341  0.80268  0.74340  Biso   1.000  O
  O583      1.0000 0.74341  0.82758  0.74340  Biso   1.000  O
  O584      1.0000 0.75592  0.84204  0.75591  Biso   1.000  O
  O585      1.0000 0.75147  0.86511  0.75146  Biso   1.000  O
  O586      1.0000 0.72978  0.93659  0.72978  Biso   1.000  O
  O587      1.0000 0.75592  0.88818  0.75591  Biso   1.000  O
  O588      1.0000 0.76638  0.89285  0.76637  Biso   1.000  O
  O589      1.0000 0.75704  0.79364  0.75703  Biso   1.000  O
  O590      1.0000 0.73090  0.84204  0.73089  Biso   1.000  O
  O591      1.0000 0.72044  0.83737  0.72043  Biso   1.000  O
  O592      1.0000 0.72473  0.76209  0.72472  Biso   1.000  O
  O593      1.0000 0.76209  0.76209  0.76209  Biso   1.000  O
  O594      1.0000 0.72473  0.00550  0.76209  Biso   1.000  O
  O595      1.0000 0.75704  0.97319  0.79363  Biso   1.000  O
  O596      1.0000 0.69318  0.97319  0.72978  Biso   1.000  O
  O597      1.0000 0.75704  0.03704  0.72978  Biso   1.000  O
  O598      1.0000 0.73535  0.62170  0.97876  Biso   1.000  O
  O599      1.0000 0.72978  0.03704  0.97318  Biso   1.000  O
  O600      1.0000 0.74341  0.04609  0.98681  Biso   1.000  O
  O601      1.0000 0.74341  0.07099  0.98681  Biso   1.000  O
  O602      1.0000 0.75592  0.08545  0.99932  Biso   1.000  O
  O603      1.0000 0.75147  0.62170  0.99487  Biso   1.000  O
  O604      1.0000 0.75704  0.03704  0.00044  Biso   1.000  O
  O605      1.0000 0.73090  0.08545  0.97430  Biso   1.000  O
  O606      1.0000 0.72044  0.08078  0.96384  Biso   1.000  O
  O607      1.0000 0.37830  0.73535  0.99487  Biso   1.000  O
  O608      1.0000 0.44977  0.72978  0.00044  Biso   1.000  O
  O609      1.0000 0.44073  0.74341  0.98681  Biso   1.000  O
  O610      1.0000 0.41583  0.74341  0.98681  Biso   1.000  O
  O611      1.0000 0.40137  0.75592  0.97430  Biso   1.000  O
  O612      1.0000 0.37830  0.75147  0.97876  Biso   1.000  O
  O613      1.0000 0.44977  0.75704  0.97318  Biso   1.000  O
  O614      1.0000 0.40137  0.73090  0.99932  Biso   1.000  O
  O615      1.0000 0.40604  0.72044  0.00978  Biso   1.000  O
  O616      1.0000 0.48132  0.72473  0.00550  Biso   1.000  O
  O617      1.0000 0.72473  0.72473  0.96813  Biso   1.000  O
  O618      1.0000 0.74341  0.74341  0.98681  Biso   1.000  O
  O619      1.0000 0.72978  0.72978  0.93659  Biso   1.000  O
  O620      1.0000 0.74341  0.74341  0.92755  Biso   1.000  O
  O621      1.0000 0.74341  0.74341  0.90264  Biso   1.000  O
  O622      1.0000 0.75592  0.75592  0.88818  Biso   1.000  O
  O623      1.0000 0.75147  0.75147  0.86511  Biso   1.000  O
  O624      1.0000 0.75704  0.75704  0.79363  Biso   1.000  O
  O625      1.0000 0.74341  0.74341  0.80267  Biso   1.000  O
  O626      1.0000 0.74341  0.74341  0.82758  Biso   1.000  O
  O627      1.0000 0.73090  0.73090  0.84204  Biso   1.000  O
  O628      1.0000 0.73535  0.73535  0.86511  Biso   1.000  O
  O629      1.0000 0.75704  0.75704  0.93659  Biso   1.000  O
  O630      1.0000 0.73090  0.73090  0.88818  Biso   1.000  O
  O631      1.0000 0.72044  0.72044  0.89285  Biso   1.000  O
  O632      1.0000 0.72978  0.72978  0.79363  Biso   1.000  O
  O633      1.0000 0.75592  0.75592  0.84204  Biso   1.000  O
  O634      1.0000 0.76638  0.76638  0.83737  Biso   1.000  O
  O635      1.0000 0.76209  0.76209  0.96813  Biso   1.000  O
  O636      1.0000 0.79364  0.75704  0.97318  Biso   1.000  O
  O637      1.0000 0.80268  0.74341  0.98681  Biso   1.000  O
  O638      1.0000 0.82758  0.74341  0.98681  Biso   1.000  O
  O639      1.0000 0.84204  0.73090  0.99932  Biso   1.000  O
  O640      1.0000 0.79364  0.72978  0.00044  Biso   1.000  O
  O641      1.0000 0.84204  0.75592  0.97430  Biso   1.000  O
  O642      1.0000 0.83737  0.76638  0.96384  Biso   1.000  O
  O643      1.0000 0.76209  0.72473  0.00550  Biso   1.000  O
  O644      1.0000 0.75704  0.69318  0.00044  Biso   1.000  O
  O645      1.0000 0.74341  0.68414  0.98681  Biso   1.000  O
  O646      1.0000 0.74341  0.65924  0.98681  Biso   1.000  O
  O647      1.0000 0.73090  0.64477  0.97430  Biso   1.000  O
  O648      1.0000 0.72978  0.69318  0.97318  Biso   1.000  O
  O649      1.0000 0.75592  0.64477  0.99932  Biso   1.000  O
  O650      1.0000 0.76638  0.64944  0.00978  Biso   1.000  O
  O651      1.0000 0.72473  0.72473  0.76209  Biso   1.000  O
  O652      1.0000 0.72473  0.76209  0.00550  Biso   1.000  O
  O653      1.0000 0.74341  0.74341  0.74340  Biso   1.000  O
  O654      1.0000 0.72978  0.69318  0.75703  Biso   1.000  O
  O655      1.0000 0.75704  0.72978  0.03704  Biso   1.000  O
  O656      1.0000 0.69318  0.72978  0.75703  Biso   1.000  O
  O657      1.0000 0.69318  0.72978  0.97318  Biso   1.000  O
  O658      1.0000 0.75704  0.79364  0.97318  Biso   1.000  O
  O659      1.0000 0.49194  0.62170  0.73535  Biso   1.000  O
  O660      1.0000 0.48637  0.03704  0.72978  Biso   1.000  O
  O661      1.0000 0.50000  0.04609  0.74340  Biso   1.000  O
  O662      1.0000 0.50000  0.07099  0.74340  Biso   1.000  O
  O663      1.0000 0.51251  0.08545  0.75591  Biso   1.000  O
  O664      1.0000 0.50806  0.62170  0.75146  Biso   1.000  O
  O665      1.0000 0.51363  0.03704  0.75703  Biso   1.000  O
  O666      1.0000 0.48749  0.08545  0.73089  Biso   1.000  O
  O667      1.0000 0.47703  0.08078  0.72043  Biso   1.000  O
  O668      1.0000 0.50806  0.75147  0.62170  Biso   1.000  O
  O669      1.0000 0.51363  0.75704  0.03704  Biso   1.000  O
  O670      1.0000 0.50000  0.74341  0.04608  Biso   1.000  O
  O671      1.0000 0.50000  0.74341  0.07099  Biso   1.000  O
  O672      1.0000 0.48749  0.73090  0.08545  Biso   1.000  O
  O673      1.0000 0.49194  0.73535  0.62170  Biso   1.000  O
  O674      1.0000 0.48637  0.72978  0.03704  Biso   1.000  O
  O675      1.0000 0.51251  0.75592  0.08545  Biso   1.000  O
  O676      1.0000 0.52297  0.76638  0.08078  Biso   1.000  O
  O677      1.0000 0.50000  0.74341  0.98681  Biso   1.000  O
  O678      1.0000 0.48637  0.69318  0.00044  Biso   1.000  O
  O679      1.0000 0.48132  0.72473  0.72472  Biso   1.000  O
  O680      1.0000 0.50000  0.74341  0.74340  Biso   1.000  O
  O681      1.0000 0.48637  0.72978  0.69318  Biso   1.000  O
  O682      1.0000 0.50000  0.74341  0.68414  Biso   1.000  O
  O683      1.0000 0.50000  0.74341  0.65923  Biso   1.000  O
  O684      1.0000 0.51251  0.75592  0.64477  Biso   1.000  O
  O685      1.0000 0.51363  0.75704  0.69318  Biso   1.000  O
  O686      1.0000 0.48749  0.73090  0.64477  Biso   1.000  O
  O687      1.0000 0.47703  0.72044  0.64944  Biso   1.000  O
  O688      1.0000 0.51868  0.76209  0.72472  Biso   1.000  O
  O689      1.0000 0.55023  0.75704  0.72978  Biso   1.000  O
  O690      1.0000 0.55927  0.74341  0.74340  Biso   1.000  O
  O691      1.0000 0.58417  0.74341  0.74340  Biso   1.000  O
  O692      1.0000 0.59864  0.73090  0.75591  Biso   1.000  O
  O693      1.0000 0.62171  0.73535  0.75146  Biso   1.000  O
  O694      1.0000 0.68414  0.74341  0.74340  Biso   1.000  O
  O695      1.0000 0.65924  0.74341  0.74340  Biso   1.000  O
  O696      1.0000 0.64478  0.75592  0.73089  Biso   1.000  O
  O697      1.0000 0.62171  0.75147  0.73535  Biso   1.000  O
  O698      1.0000 0.55023  0.72978  0.75703  Biso   1.000  O
  O699      1.0000 0.59864  0.75592  0.73089  Biso   1.000  O
  O700      1.0000 0.59396  0.76638  0.72043  Biso   1.000  O
  O701      1.0000 0.69318  0.75704  0.72978  Biso   1.000  O
  O702      1.0000 0.64478  0.73090  0.75591  Biso   1.000  O
  O703      1.0000 0.64945  0.72044  0.76637  Biso   1.000  O
  O704      1.0000 0.51868  0.72473  0.76209  Biso   1.000  O
  O705      1.0000 0.51363  0.69318  0.75703  Biso   1.000  O
  O706      1.0000 0.50000  0.68414  0.74340  Biso   1.000  O
  O707      1.0000 0.50000  0.65924  0.74340  Biso   1.000  O
  O708      1.0000 0.48749  0.64477  0.73089  Biso   1.000  O
  O709      1.0000 0.48637  0.69318  0.72978  Biso   1.000  O
  O710      1.0000 0.51251  0.64477  0.75591  Biso   1.000  O
  O711      1.0000 0.52297  0.64944  0.76637  Biso   1.000  O
  O712      1.0000 0.48132  0.76209  0.76209  Biso   1.000  O
  O713      1.0000 0.51363  0.72978  0.79363  Biso   1.000  O
  O714      1.0000 0.44977  0.72978  0.72978  Biso   1.000  O
  O715      1.0000 0.51363  0.79364  0.72978  Biso   1.000  O
  O716      1.0000 0.76638  0.76638  0.89285  Biso   1.000  O
  O717      1.0000 0.72044  0.72044  0.83737  Biso   1.000  O
  O718      1.0000 0.68414  0.74341  0.98681  Biso   1.000  O
  O719      1.0000 0.65924  0.74341  0.98681  Biso   1.000  O
  O720      1.0000 0.64478  0.75592  0.99932  Biso   1.000  O
  O721      1.0000 0.62171  0.75147  0.99487  Biso   1.000  O
  O722      1.0000 0.55023  0.75704  0.00044  Biso   1.000  O
  O723      1.0000 0.55927  0.74341  0.98681  Biso   1.000  O
  O724      1.0000 0.58417  0.74341  0.98681  Biso   1.000  O
  O725      1.0000 0.59864  0.73090  0.97430  Biso   1.000  O
  O726      1.0000 0.62171  0.73535  0.97876  Biso   1.000  O
  O727      1.0000 0.69318  0.75704  0.00044  Biso   1.000  O
  O728      1.0000 0.64478  0.73090  0.97430  Biso   1.000  O
  O729      1.0000 0.64945  0.72044  0.96384  Biso   1.000  O
  O730      1.0000 0.55023  0.72978  0.97318  Biso   1.000  O
  O731      1.0000 0.59864  0.75592  0.99932  Biso   1.000  O
  O732      1.0000 0.59396  0.76638  0.00978  Biso   1.000  O
  O733      1.0000 0.72978  0.79364  0.00044  Biso   1.000  O
  O734      1.0000 0.74341  0.80268  0.98681  Biso   1.000  O
  O735      1.0000 0.74341  0.82758  0.98681  Biso   1.000  O
  O736      1.0000 0.75592  0.84204  0.97430  Biso   1.000  O
  O737      1.0000 0.75147  0.86511  0.97876  Biso   1.000  O
  O738      1.0000 0.75704  0.93659  0.97318  Biso   1.000  O
  O739      1.0000 0.74341  0.92755  0.98681  Biso   1.000  O
  O740      1.0000 0.74341  0.90265  0.98681  Biso   1.000  O
  O741      1.0000 0.73090  0.88818  0.99932  Biso   1.000  O
  O742      1.0000 0.73535  0.86511  0.99487  Biso   1.000  O
  O743      1.0000 0.73090  0.84204  0.99932  Biso   1.000  O
  O744      1.0000 0.72044  0.83737  0.00978  Biso   1.000  O
  O745      1.0000 0.75592  0.88818  0.97430  Biso   1.000  O
  O746      1.0000 0.76638  0.89285  0.96384  Biso   1.000  O
  O747      1.0000 0.76209  0.96814  0.96813  Biso   1.000  O
  O748      1.0000 0.51868  0.72473  0.96813  Biso   1.000  O
  O749      1.0000 0.72978  0.75704  0.03704  Biso   1.000  O
  O750      1.0000 0.79364  0.75704  0.75703  Biso   1.000  O
  O751      1.0000 0.48637  0.75704  0.79363  Biso   1.000  O
  O752      1.0000 0.50000  0.74341  0.80267  Biso   1.000  O
  O753      1.0000 0.50000  0.74341  0.82758  Biso   1.000  O
  O754      1.0000 0.51251  0.73090  0.84204  Biso   1.000  O
  O755      1.0000 0.50806  0.73535  0.86511  Biso   1.000  O
  O756      1.0000 0.51363  0.72978  0.93659  Biso   1.000  O
  O757      1.0000 0.50000  0.74341  0.92755  Biso   1.000  O
  O758      1.0000 0.50000  0.74341  0.90264  Biso   1.000  O
  O759      1.0000 0.48749  0.75592  0.88818  Biso   1.000  O
  O760      1.0000 0.49194  0.75147  0.86511  Biso   1.000  O
  O761      1.0000 0.48749  0.75592  0.84204  Biso   1.000  O
  O762      1.0000 0.47703  0.76638  0.83737  Biso   1.000  O
  O763      1.0000 0.48637  0.75704  0.93659  Biso   1.000  O
  O764      1.0000 0.51251  0.73090  0.88818  Biso   1.000  O
  O765      1.0000 0.52297  0.72044  0.89285  Biso   1.000  O
  O766      1.0000 0.59396  0.72044  0.76637  Biso   1.000  O
  O767      1.0000 0.64945  0.76638  0.72043  Biso   1.000  O
  O768      1.0000 0.50000  0.80268  0.74340  Biso   1.000  O
  O769      1.0000 0.50000  0.82758  0.74340  Biso   1.000  O
  O770      1.0000 0.48749  0.84204  0.75591  Biso   1.000  O
  O771      1.0000 0.49194  0.86511  0.75146  Biso   1.000  O
  O772      1.0000 0.50000  0.92755  0.74340  Biso   1.000  O
  O773      1.0000 0.50000  0.90265  0.74340  Biso   1.000  O
  O774      1.0000 0.51251  0.88818  0.73089  Biso   1.000  O
  O775      1.0000 0.50806  0.86511  0.73535  Biso   1.000  O
  O776      1.0000 0.48637  0.79364  0.75703  Biso   1.000  O
  O777      1.0000 0.51251  0.84204  0.73089  Biso   1.000  O
  O778      1.0000 0.52297  0.83737  0.72043  Biso   1.000  O
  O779      1.0000 0.51363  0.93659  0.72978  Biso   1.000  O
  O780      1.0000 0.48749  0.88818  0.75591  Biso   1.000  O
  O781      1.0000 0.47703  0.89285  0.76637  Biso   1.000  O
  O782      1.0000 0.51868  0.96814  0.72472  Biso   1.000  O
  O783      1.0000 0.44977  0.75704  0.75703  Biso   1.000  O
  O784      1.0000 0.52297  0.00979  0.89285  Biso   1.000  O
  O785      1.0000 0.47703  0.96385  0.83737  Biso   1.000  O
  O786      1.0000 0.44073  0.98682  0.98681  Biso   1.000  O
  O787      1.0000 0.41583  0.98682  0.98681  Biso   1.000  O
  O788      1.0000 0.40137  0.99933  0.99932  Biso   1.000  O
  O789      1.0000 0.37830  0.99487  0.99487  Biso   1.000  O
  O790      1.0000 0.37830  0.97876  0.97876  Biso   1.000  O
  O791      1.0000 0.44977  0.00045  0.00044  Biso   1.000  O
  O792      1.0000 0.40137  0.97431  0.97430  Biso   1.000  O
  O793      1.0000 0.40604  0.96385  0.96384  Biso   1.000  O
  O794      1.0000 0.48637  0.03704  0.00044  Biso   1.000  O
  O795      1.0000 0.50000  0.04609  0.98681  Biso   1.000  O
  O796      1.0000 0.50000  0.07099  0.98681  Biso   1.000  O
  O797      1.0000 0.51251  0.08545  0.97430  Biso   1.000  O
  O798      1.0000 0.50806  0.62170  0.97876  Biso   1.000  O
  O799      1.0000 0.49194  0.62170  0.99487  Biso   1.000  O
  O800      1.0000 0.48749  0.08545  0.99932  Biso   1.000  O
  O801      1.0000 0.47703  0.08078  0.00978  Biso   1.000  O
  O802      1.0000 0.48637  0.00045  0.03704  Biso   1.000  O
  O803      1.0000 0.55023  0.00045  0.75703  Biso   1.000  O
  O804      1.0000 0.79364  0.00045  0.00044  Biso   1.000  O
  O805      1.0000 0.80268  0.98682  0.98681  Biso   1.000  O
  O806      1.0000 0.82758  0.98682  0.98681  Biso   1.000  O
  O807      1.0000 0.84204  0.97431  0.97430  Biso   1.000  O
  O808      1.0000 0.79364  0.97319  0.97318  Biso   1.000  O
  O809      1.0000 0.84204  0.99933  0.99932  Biso   1.000  O
  O810      1.0000 0.83737  0.00979  0.00978  Biso   1.000  O
  O811      1.0000 0.51363  0.69318  0.97318  Biso   1.000  O
  O812      1.0000 0.50000  0.68414  0.98681  Biso   1.000  O
  O813      1.0000 0.50000  0.65924  0.98681  Biso   1.000  O
  O814      1.0000 0.48749  0.64477  0.99932  Biso   1.000  O
  O815      1.0000 0.51251  0.64477  0.97430  Biso   1.000  O
  O816      1.0000 0.52297  0.64944  0.96384  Biso   1.000  O
  O817      1.0000 0.74341  0.98682  0.80267  Biso   1.000  O
  O818      1.0000 0.74341  0.98682  0.82758  Biso   1.000  O
  O819      1.0000 0.73090  0.99933  0.84204  Biso   1.000  O
  O820      1.0000 0.73535  0.99487  0.86511  Biso   1.000  O
  O821      1.0000 0.72978  0.00045  0.93659  Biso   1.000  O
  O822      1.0000 0.74341  0.98682  0.92755  Biso   1.000  O
  O823      1.0000 0.74341  0.98682  0.90264  Biso   1.000  O
  O824      1.0000 0.75592  0.97431  0.88818  Biso   1.000  O
  O825      1.0000 0.75147  0.97876  0.86511  Biso   1.000  O
  O826      1.0000 0.72978  0.00045  0.79363  Biso   1.000  O
  O827      1.0000 0.75592  0.97431  0.84204  Biso   1.000  O
  O828      1.0000 0.76638  0.96385  0.83737  Biso   1.000  O
  O829      1.0000 0.75704  0.97319  0.93659  Biso   1.000  O
  O830      1.0000 0.73090  0.99933  0.88818  Biso   1.000  O
  O831      1.0000 0.72044  0.00979  0.89285  Biso   1.000  O
  O832      1.0000 0.69318  0.00045  0.75703  Biso   1.000  O
  O833      1.0000 0.68414  0.98682  0.74340  Biso   1.000  O
  O834      1.0000 0.65924  0.98682  0.74340  Biso   1.000  O
  O835      1.0000 0.64478  0.97431  0.73089  Biso   1.000  O
  O836      1.0000 0.62171  0.97876  0.73535  Biso   1.000  O
  O837      1.0000 0.55023  0.97319  0.72978  Biso   1.000  O
  O838      1.0000 0.55927  0.98682  0.74340  Biso   1.000  O
  O839      1.0000 0.58417  0.98682  0.74340  Biso   1.000  O
  O840      1.0000 0.59864  0.99933  0.75591  Biso   1.000  O
  O841      1.0000 0.62171  0.99487  0.75146  Biso   1.000  O
  O842      1.0000 0.64478  0.99933  0.75591  Biso   1.000  O
  O843      1.0000 0.64945  0.00979  0.76637  Biso   1.000  O
  O844      1.0000 0.59864  0.97431  0.73089  Biso   1.000  O
  O845      1.0000 0.59397  0.96385  0.72043  Biso   1.000  O
  O846      1.0000 0.72044  0.89285  0.72043  Biso   1.000  O
  O847      1.0000 0.76638  0.83737  0.76637  Biso   1.000  O
  O848      1.0000 0.72978  0.03704  0.75703  Biso   1.000  O
  O849      1.0000 0.40604  0.00979  0.72043  Biso   1.000  O
  O850      1.0000 0.72044  0.00979  0.83737  Biso   1.000  O
  O851      1.0000 0.76638  0.96385  0.89285  Biso   1.000  O
  O852      1.0000 0.83737  0.96385  0.76637  Biso   1.000  O
  O853      1.0000 0.74341  0.04609  0.74340  Biso   1.000  O
  O854      1.0000 0.74341  0.07099  0.74340  Biso   1.000  O
  O855      1.0000 0.73090  0.08545  0.75591  Biso   1.000  O
  O856      1.0000 0.73535  0.62170  0.75146  Biso   1.000  O
  O857      1.0000 0.75147  0.62170  0.73535  Biso   1.000  O
  O858      1.0000 0.75592  0.08545  0.73089  Biso   1.000  O
  O859      1.0000 0.76638  0.08078  0.72043  Biso   1.000  O
  O860      1.0000 0.74341  0.68414  0.74340  Biso   1.000  O
  O861      1.0000 0.74341  0.65924  0.74340  Biso   1.000  O
  O862      1.0000 0.75592  0.64477  0.73089  Biso   1.000  O
  O863      1.0000 0.75704  0.69318  0.72978  Biso   1.000  O
  O864      1.0000 0.73090  0.64477  0.75591  Biso   1.000  O
  O865      1.0000 0.72044  0.64944  0.76637  Biso   1.000  O
  O866      1.0000 0.76209  0.72473  0.72472  Biso   1.000  O
  O867      1.0000 0.40604  0.76638  0.96384  Biso   1.000  O
  O868      1.0000 0.74341  0.74341  0.04608  Biso   1.000  O
  O869      1.0000 0.74341  0.74341  0.07099  Biso   1.000  O
  O870      1.0000 0.75592  0.73090  0.08545  Biso   1.000  O
  O871      1.0000 0.75147  0.73535  0.62170  Biso   1.000  O
  O872      1.0000 0.73535  0.75147  0.62170  Biso   1.000  O
  O873      1.0000 0.73090  0.75592  0.08545  Biso   1.000  O
  O874      1.0000 0.72044  0.76638  0.08078  Biso   1.000  O
  O875      1.0000 0.83737  0.72044  0.00978  Biso   1.000  O
  O876      1.0000 0.76638  0.83737  0.96384  Biso   1.000  O
  O877      1.0000 0.72044  0.89285  0.00978  Biso   1.000  O
  O878      1.0000 0.75704  0.72978  0.69318  Biso   1.000  O
  O879      1.0000 0.74341  0.74341  0.68414  Biso   1.000  O
  O880      1.0000 0.74341  0.74341  0.65923  Biso   1.000  O
  O881      1.0000 0.73090  0.75592  0.64477  Biso   1.000  O
  O882      1.0000 0.72978  0.75704  0.69318  Biso   1.000  O
  O883      1.0000 0.75592  0.73090  0.64477  Biso   1.000  O
  O884      1.0000 0.76638  0.72044  0.64944  Biso   1.000  O
  O885      1.0000 0.47703  0.72044  0.08078  Biso   1.000  O
  O886      1.0000 0.52297  0.76638  0.64944  Biso   1.000  O
  O887      1.0000 0.44073  0.74341  0.74340  Biso   1.000  O
  O888      1.0000 0.41583  0.74341  0.74340  Biso   1.000  O
  O889      1.0000 0.40137  0.75592  0.75591  Biso   1.000  O
  O890      1.0000 0.37830  0.75147  0.75146  Biso   1.000  O
  O891      1.0000 0.37830  0.73535  0.73535  Biso   1.000  O
  O892      1.0000 0.40137  0.73090  0.73089  Biso   1.000  O
  O893      1.0000 0.40604  0.72044  0.72043  Biso   1.000  O
  O894      1.0000 0.47703  0.83737  0.76637  Biso   1.000  O
  O895      1.0000 0.52297  0.89285  0.72043  Biso   1.000  O
  O896      1.0000 0.80268  0.74341  0.74340  Biso   1.000  O
  O897      1.0000 0.82758  0.74341  0.74340  Biso   1.000  O
  O898      1.0000 0.84204  0.73090  0.73089  Biso   1.000  O
  O899      1.0000 0.79364  0.72978  0.72978  Biso   1.000  O
  O900      1.0000 0.84204  0.75592  0.75591  Biso   1.000  O
  O901      1.0000 0.83737  0.76638  0.76637  Biso   1.000  O
  O902      1.0000 0.72044  0.96385  0.08078  Biso   1.000  O
  O903      1.0000 0.76638  0.00979  0.64944  Biso   1.000  O
  O904      1.0000 0.64945  0.96385  0.72043  Biso   1.000  O
  O905      1.0000 0.59397  0.00979  0.76637  Biso   1.000  O
  O906      1.0000 0.72044  0.08078  0.76637  Biso   1.000  O
  O907      1.0000 0.76638  0.64944  0.72043  Biso   1.000  O
  O908      1.0000 0.76638  0.08078  0.00978  Biso   1.000  O
  O909      1.0000 0.76638  0.72044  0.08078  Biso   1.000  O
  O910      1.0000 0.64945  0.76638  0.00978  Biso   1.000  O
  O911      1.0000 0.59396  0.72044  0.96384  Biso   1.000  O
  O912      1.0000 0.72044  0.64944  0.96384  Biso   1.000  O
  O913      1.0000 0.72044  0.76638  0.64944  Biso   1.000  O
  O914      1.0000 0.52297  0.08078  0.76637  Biso   1.000  O
  O915      1.0000 0.52297  0.72044  0.83737  Biso   1.000  O
  O916      1.0000 0.47703  0.76638  0.89285  Biso   1.000  O
  O917      1.0000 0.40604  0.76638  0.76637  Biso   1.000  O
  O918      1.0000 0.47703  0.64944  0.72043  Biso   1.000  O
  O919      1.0000 0.83737  0.72044  0.72043  Biso   1.000  O
  O920      1.0000 0.50000  0.98682  0.04608  Biso   1.000  O
  O921      1.0000 0.50000  0.98682  0.07099  Biso   1.000  O
  O922      1.0000 0.51251  0.97431  0.08545  Biso   1.000  O
  O923      1.0000 0.50806  0.97876  0.62170  Biso   1.000  O
  O924      1.0000 0.49194  0.99487  0.62170  Biso   1.000  O
  O925      1.0000 0.48749  0.99933  0.08545  Biso   1.000  O
  O926      1.0000 0.47703  0.00979  0.08078  Biso   1.000  O
  O927      1.0000 0.59397  0.96385  0.00978  Biso   1.000  O
  O928      1.0000 0.64945  0.00979  0.96384  Biso   1.000  O
  O929      1.0000 0.52297  0.08078  0.96384  Biso   1.000  O
  O930      1.0000 0.51363  0.97319  0.69318  Biso   1.000  O
  O931      1.0000 0.50000  0.98682  0.68414  Biso   1.000  O
  O932      1.0000 0.50000  0.98682  0.65923  Biso   1.000  O
  O933      1.0000 0.48749  0.99933  0.64477  Biso   1.000  O
  O934      1.0000 0.48637  0.00045  0.69318  Biso   1.000  O
  O935      1.0000 0.51251  0.97431  0.64477  Biso   1.000  O
  O936      1.0000 0.52297  0.96385  0.64944  Biso   1.000  O
  O937      1.0000 0.47703  0.64944  0.00978  Biso   1.000  O
  O938      1.0000 0.52297  0.96385  0.08078  Biso   1.000  O
  O939      1.0000 0.40604  0.00979  0.00978  Biso   1.000  O
  O940      1.0000 0.47703  0.89285  0.96384  Biso   1.000  O
  O941      1.0000 0.52297  0.83737  0.00978  Biso   1.000  O
  O942      1.0000 0.83737  0.96385  0.96384  Biso   1.000  O
  O943      1.0000 0.99450  0.96814  0.48131  Biso   1.000  O
  O944      1.0000 0.01318  0.98682  0.50000  Biso   1.000  O
  O945      1.0000 0.99956  0.97319  0.44977  Biso   1.000  O
  O946      1.0000 0.01318  0.98682  0.44073  Biso   1.000  O
  O947      1.0000 0.01318  0.98682  0.41582  Biso   1.000  O
  O948      1.0000 0.02569  0.99933  0.40136  Biso   1.000  O
  O949      1.0000 0.02124  0.99487  0.37829  Biso   1.000  O
  O950      1.0000 0.02681  0.00045  0.30681  Biso   1.000  O
  O951      1.0000 0.01318  0.98682  0.31585  Biso   1.000  O
  O952      1.0000 0.01318  0.98682  0.34076  Biso   1.000  O
  O953      1.0000 0.00067  0.97431  0.35522  Biso   1.000  O
  O954      1.0000 0.00513  0.97876  0.37829  Biso   1.000  O
  O955      1.0000 0.02681  0.00045  0.44977  Biso   1.000  O
  O956      1.0000 0.00067  0.97431  0.40136  Biso   1.000  O
  O957      1.0000 0.99021  0.96385  0.40603  Biso   1.000  O
  O958      1.0000 0.99956  0.97319  0.30681  Biso   1.000  O
  O959      1.0000 0.02569  0.99933  0.35522  Biso   1.000  O
  O960      1.0000 0.03615  0.00979  0.35055  Biso   1.000  O
  O961      1.0000 0.03187  0.00550  0.48131  Biso   1.000  O
  O962      1.0000 0.06341  0.00045  0.48637  Biso   1.000  O
  O963      1.0000 0.07245  0.98682  0.50000  Biso   1.000  O
  O964      1.0000 0.09736  0.98682  0.50000  Biso   1.000  O
  O965      1.0000 0.11182  0.97431  0.51251  Biso   1.000  O
  O966      1.0000 0.13489  0.97876  0.50805  Biso   1.000  O
  O967      1.0000 0.20637  0.97319  0.51362  Biso   1.000  O
  O968      1.0000 0.19732  0.98682  0.50000  Biso   1.000  O
  O969      1.0000 0.17242  0.98682  0.50000  Biso   1.000  O
  O970      1.0000 0.15796  0.99933  0.48748  Biso   1.000  O
  O971      1.0000 0.13489  0.99487  0.49194  Biso   1.000  O
  O972      1.0000 0.06341  0.97319  0.51362  Biso   1.000  O
  O973      1.0000 0.11182  0.99933  0.48748  Biso   1.000  O
  O974      1.0000 0.10715  0.00979  0.47703  Biso   1.000  O
  O975      1.0000 0.20637  0.00045  0.48637  Biso   1.000  O
  O976      1.0000 0.15796  0.97431  0.51251  Biso   1.000  O
  O977      1.0000 0.16263  0.96385  0.52297  Biso   1.000  O
  O978      1.0000 0.03187  0.96814  0.51868  Biso   1.000  O
  O979      1.0000 0.02681  0.93659  0.51362  Biso   1.000  O
  O980      1.0000 0.01318  0.92755  0.50000  Biso   1.000  O
  O981      1.0000 0.01318  0.90265  0.50000  Biso   1.000  O
  O982      1.0000 0.00067  0.88818  0.48748  Biso   1.000  O
  O983      1.0000 0.00513  0.86511  0.49194  Biso   1.000  O
  O984      1.0000 0.99956  0.79364  0.48637  Biso   1.000  O
  O985      1.0000 0.01318  0.80268  0.50000  Biso   1.000  O
  O986      1.0000 0.01318  0.82758  0.50000  Biso   1.000  O
  O987      1.0000 0.02569  0.84204  0.51251  Biso   1.000  O
  O988      1.0000 0.02124  0.86511  0.50805  Biso   1.000  O
  O989      1.0000 0.99956  0.93659  0.48637  Biso   1.000  O
  O990      1.0000 0.02569  0.88818  0.51251  Biso   1.000  O
  O991      1.0000 0.03615  0.89285  0.52297  Biso   1.000  O
  O992      1.0000 0.02681  0.79364  0.51362  Biso   1.000  O
  O993      1.0000 0.00067  0.84204  0.48748  Biso   1.000  O
  O994      1.0000 0.99021  0.83737  0.47703  Biso   1.000  O
  O995      1.0000 0.99450  0.96814  0.27527  Biso   1.000  O
  O996      1.0000 0.99450  0.76209  0.48131  Biso   1.000  O
  O997      1.0000 0.23791  0.96814  0.51868  Biso   1.000  O
  O998      1.0000 0.03187  0.76209  0.51868  Biso   1.000  O
  O999      1.0000 0.23791  0.00550  0.48131  Biso   1.000  O
  O1000      1.0000 0.03187  0.00550  0.27527  Biso   1.000  O
  O1001      1.0000 0.99450  0.00550  0.51868  Biso   1.000  O
  O1002      1.0000 0.01318  0.98682  0.25659  Biso   1.000  O
  O1003      1.0000 0.99956  0.93659  0.27022  Biso   1.000  O
  O1004      1.0000 0.02681  0.97319  0.55022  Biso   1.000  O
  O1005      1.0000 0.96296  0.97319  0.27022  Biso   1.000  O
  O1006      1.0000 0.96296  0.97319  0.48637  Biso   1.000  O
  O1007      1.0000 0.02681  0.03704  0.48637  Biso   1.000  O
  O1008      1.0000 0.26465  0.99487  0.13488  Biso   1.000  O
  O1009      1.0000 0.27022  0.00045  0.55022  Biso   1.000  O
  O1010      1.0000 0.25659  0.98682  0.55926  Biso   1.000  O
  O1011      1.0000 0.25659  0.98682  0.58417  Biso   1.000  O
  O1012      1.0000 0.24408  0.97431  0.59863  Biso   1.000  O
  O1013      1.0000 0.24854  0.97876  0.13488  Biso   1.000  O
  O1014      1.0000 0.24296  0.97319  0.55022  Biso   1.000  O
  O1015      1.0000 0.26910  0.99933  0.59863  Biso   1.000  O
  O1016      1.0000 0.27956  0.00979  0.59396  Biso   1.000  O
  O1017      1.0000 0.27527  0.00550  0.51868  Biso   1.000  O
  O1018      1.0000 0.25659  0.98682  0.50000  Biso   1.000  O
  O1019      1.0000 0.24296  0.93659  0.51362  Biso   1.000  O
  O1020      1.0000 0.89148  0.97876  0.26464  Biso   1.000  O
  O1021      1.0000 0.95392  0.98682  0.25659  Biso   1.000  O
  O1022      1.0000 0.92901  0.98682  0.25659  Biso   1.000  O
  O1023      1.0000 0.91455  0.99933  0.24408  Biso   1.000  O
  O1024      1.0000 0.89148  0.99487  0.24853  Biso   1.000  O
  O1025      1.0000 0.96296  0.00045  0.24296  Biso   1.000  O
  O1026      1.0000 0.91455  0.97431  0.26910  Biso   1.000  O
  O1027      1.0000 0.91922  0.96385  0.27956  Biso   1.000  O
  O1028      1.0000 0.99450  0.00550  0.23790  Biso   1.000  O
  O1029      1.0000 0.23791  0.96814  0.23790  Biso   1.000  O
  O1030      1.0000 0.25659  0.98682  0.25659  Biso   1.000  O
  O1031      1.0000 0.24296  0.97319  0.20636  Biso   1.000  O
  O1032      1.0000 0.25659  0.98682  0.19732  Biso   1.000  O
  O1033      1.0000 0.25659  0.98682  0.17241  Biso   1.000  O
  O1034      1.0000 0.26910  0.99933  0.15795  Biso   1.000  O
  O1035      1.0000 0.27022  0.00045  0.20636  Biso   1.000  O
  O1036      1.0000 0.24408  0.97431  0.15795  Biso   1.000  O
  O1037      1.0000 0.23362  0.96385  0.16262  Biso   1.000  O
  O1038      1.0000 0.27527  0.00550  0.23790  Biso   1.000  O
  O1039      1.0000 0.30682  0.00045  0.24296  Biso   1.000  O
  O1040      1.0000 0.31586  0.98682  0.25659  Biso   1.000  O
  O1041      1.0000 0.34076  0.98682  0.25659  Biso   1.000  O
  O1042      1.0000 0.35523  0.97431  0.26910  Biso   1.000  O
  O1043      1.0000 0.30682  0.97319  0.27022  Biso   1.000  O
  O1044      1.0000 0.35523  0.99933  0.24408  Biso   1.000  O
  O1045      1.0000 0.35056  0.00979  0.23362  Biso   1.000  O
  O1046      1.0000 0.27527  0.96814  0.27527  Biso   1.000  O
  O1047      1.0000 0.27022  0.93659  0.27022  Biso   1.000  O
  O1048      1.0000 0.25659  0.92755  0.25659  Biso   1.000  O
  O1049      1.0000 0.25659  0.90265  0.25659  Biso   1.000  O
  O1050      1.0000 0.24408  0.88818  0.24408  Biso   1.000  O
  O1051      1.0000 0.24854  0.86511  0.24853  Biso   1.000  O
  O1052      1.0000 0.24296  0.79364  0.24296  Biso   1.000  O
  O1053      1.0000 0.25659  0.80268  0.25659  Biso   1.000  O
  O1054      1.0000 0.25659  0.82758  0.25659  Biso   1.000  O
  O1055      1.0000 0.26910  0.84204  0.26910  Biso   1.000  O
  O1056      1.0000 0.26465  0.86511  0.26464  Biso   1.000  O
  O1057      1.0000 0.24296  0.93659  0.24296  Biso   1.000  O
  O1058      1.0000 0.26910  0.88818  0.26910  Biso   1.000  O
  O1059      1.0000 0.27956  0.89285  0.27956  Biso   1.000  O
  O1060      1.0000 0.27022  0.79364  0.27022  Biso   1.000  O
  O1061      1.0000 0.24408  0.84204  0.24408  Biso   1.000  O
  O1062      1.0000 0.23362  0.83737  0.23362  Biso   1.000  O
  O1063      1.0000 0.23791  0.76209  0.23790  Biso   1.000  O
  O1064      1.0000 0.27527  0.76209  0.27527  Biso   1.000  O
  O1065      1.0000 0.23791  0.00550  0.27527  Biso   1.000  O
  O1066      1.0000 0.27022  0.97319  0.30681  Biso   1.000  O
  O1067      1.0000 0.20637  0.97319  0.24296  Biso   1.000  O
  O1068      1.0000 0.27022  0.03704  0.24296  Biso   1.000  O
  O1069      1.0000 0.24854  0.62170  0.49194  Biso   1.000  O
  O1070      1.0000 0.24296  0.03704  0.48637  Biso   1.000  O
  O1071      1.0000 0.25659  0.04609  0.50000  Biso   1.000  O
  O1072      1.0000 0.25659  0.07099  0.50000  Biso   1.000  O
  O1073      1.0000 0.26910  0.08545  0.51251  Biso   1.000  O
  O1074      1.0000 0.26465  0.62170  0.50805  Biso   1.000  O
  O1075      1.0000 0.27022  0.03704  0.51362  Biso   1.000  O
  O1076      1.0000 0.24408  0.08545  0.48748  Biso   1.000  O
  O1077      1.0000 0.23362  0.08078  0.47703  Biso   1.000  O
  O1078      1.0000 0.89148  0.73535  0.50805  Biso   1.000  O
  O1079      1.0000 0.96296  0.72978  0.51362  Biso   1.000  O
  O1080      1.0000 0.95392  0.74341  0.50000  Biso   1.000  O
  O1081      1.0000 0.92901  0.74341  0.50000  Biso   1.000  O
  O1082      1.0000 0.91455  0.75592  0.48748  Biso   1.000  O
  O1083      1.0000 0.89148  0.75147  0.49194  Biso   1.000  O
  O1084      1.0000 0.96296  0.75704  0.48637  Biso   1.000  O
  O1085      1.0000 0.91455  0.73090  0.51251  Biso   1.000  O
  O1086      1.0000 0.91922  0.72044  0.52297  Biso   1.000  O
  O1087      1.0000 0.99450  0.72473  0.51868  Biso   1.000  O
  O1088      1.0000 0.23791  0.72473  0.48131  Biso   1.000  O
  O1089      1.0000 0.25659  0.74341  0.50000  Biso   1.000  O
  O1090      1.0000 0.24296  0.72978  0.44977  Biso   1.000  O
  O1091      1.0000 0.25659  0.74341  0.44073  Biso   1.000  O
  O1092      1.0000 0.25659  0.74341  0.41582  Biso   1.000  O
  O1093      1.0000 0.26910  0.75592  0.40136  Biso   1.000  O
  O1094      1.0000 0.26465  0.75147  0.37829  Biso   1.000  O
  O1095      1.0000 0.27022  0.75704  0.30681  Biso   1.000  O
  O1096      1.0000 0.25659  0.74341  0.31585  Biso   1.000  O
  O1097      1.0000 0.25659  0.74341  0.34076  Biso   1.000  O
  O1098      1.0000 0.24408  0.73090  0.35522  Biso   1.000  O
  O1099      1.0000 0.24854  0.73535  0.37829  Biso   1.000  O
  O1100      1.0000 0.27022  0.75704  0.44977  Biso   1.000  O
  O1101      1.0000 0.24408  0.73090  0.40136  Biso   1.000  O
  O1102      1.0000 0.23362  0.72044  0.40603  Biso   1.000  O
  O1103      1.0000 0.24296  0.72978  0.30681  Biso   1.000  O
  O1104      1.0000 0.26910  0.75592  0.35522  Biso   1.000  O
  O1105      1.0000 0.27956  0.76638  0.35055  Biso   1.000  O
  O1106      1.0000 0.27527  0.76209  0.48131  Biso   1.000  O
  O1107      1.0000 0.30682  0.75704  0.48637  Biso   1.000  O
  O1108      1.0000 0.31586  0.74341  0.50000  Biso   1.000  O
  O1109      1.0000 0.34076  0.74341  0.50000  Biso   1.000  O
  O1110      1.0000 0.35523  0.73090  0.51251  Biso   1.000  O
  O1111      1.0000 0.30682  0.72978  0.51362  Biso   1.000  O
  O1112      1.0000 0.35523  0.75592  0.48748  Biso   1.000  O
  O1113      1.0000 0.35056  0.76638  0.47703  Biso   1.000  O
  O1114      1.0000 0.27527  0.72473  0.51868  Biso   1.000  O
  O1115      1.0000 0.27022  0.69318  0.51362  Biso   1.000  O
  O1116      1.0000 0.25659  0.68414  0.50000  Biso   1.000  O
  O1117      1.0000 0.25659  0.65924  0.50000  Biso   1.000  O
  O1118      1.0000 0.24408  0.64477  0.48748  Biso   1.000  O
  O1119      1.0000 0.24296  0.69318  0.48637  Biso   1.000  O
  O1120      1.0000 0.26910  0.64477  0.51251  Biso   1.000  O
  O1121      1.0000 0.27956  0.64945  0.52297  Biso   1.000  O
  O1122      1.0000 0.23791  0.72473  0.27527  Biso   1.000  O
  O1123      1.0000 0.23791  0.76209  0.51868  Biso   1.000  O
  O1124      1.0000 0.25659  0.74341  0.25659  Biso   1.000  O
  O1125      1.0000 0.24296  0.69318  0.27022  Biso   1.000  O
  O1126      1.0000 0.27022  0.72978  0.55022  Biso   1.000  O
  O1127      1.0000 0.20637  0.72978  0.27022  Biso   1.000  O
  O1128      1.0000 0.20637  0.72978  0.48637  Biso   1.000  O
  O1129      1.0000 0.27022  0.79364  0.48637  Biso   1.000  O
  O1130      1.0000 0.00513  0.62170  0.24853  Biso   1.000  O
  O1131      1.0000 0.99956  0.03704  0.24296  Biso   1.000  O
  O1132      1.0000 0.01318  0.04609  0.25659  Biso   1.000  O
  O1133      1.0000 0.01318  0.07099  0.25659  Biso   1.000  O
  O1134      1.0000 0.02569  0.08545  0.26910  Biso   1.000  O
  O1135      1.0000 0.02124  0.62170  0.26464  Biso   1.000  O
  O1136      1.0000 0.02681  0.03704  0.27022  Biso   1.000  O
  O1137      1.0000 0.00067  0.08545  0.24408  Biso   1.000  O
  O1138      1.0000 0.99021  0.08078  0.23362  Biso   1.000  O
  O1139      1.0000 0.02124  0.75147  0.13488  Biso   1.000  O
  O1140      1.0000 0.02681  0.75704  0.55022  Biso   1.000  O
  O1141      1.0000 0.01318  0.74341  0.55926  Biso   1.000  O
  O1142      1.0000 0.01318  0.74341  0.58417  Biso   1.000  O
  O1143      1.0000 0.00067  0.73090  0.59863  Biso   1.000  O
  O1144      1.0000 0.00513  0.73535  0.13488  Biso   1.000  O
  O1145      1.0000 0.99956  0.72978  0.55022  Biso   1.000  O
  O1146      1.0000 0.02569  0.75592  0.59863  Biso   1.000  O
  O1147      1.0000 0.03615  0.76638  0.59396  Biso   1.000  O
  O1148      1.0000 0.01318  0.74341  0.50000  Biso   1.000  O
  O1149      1.0000 0.99956  0.69318  0.51362  Biso   1.000  O
  O1150      1.0000 0.99450  0.72473  0.23790  Biso   1.000  O
  O1151      1.0000 0.01318  0.74341  0.25659  Biso   1.000  O
  O1152      1.0000 0.99956  0.72978  0.20636  Biso   1.000  O
  O1153      1.0000 0.01318  0.74341  0.19732  Biso   1.000  O
  O1154      1.0000 0.01318  0.74341  0.17241  Biso   1.000  O
  O1155      1.0000 0.02569  0.75592  0.15795  Biso   1.000  O
  O1156      1.0000 0.02681  0.75704  0.20636  Biso   1.000  O
  O1157      1.0000 0.00067  0.73090  0.15795  Biso   1.000  O
  O1158      1.0000 0.99021  0.72044  0.16262  Biso   1.000  O
  O1159      1.0000 0.03187  0.76209  0.23790  Biso   1.000  O
  O1160      1.0000 0.06341  0.75704  0.24296  Biso   1.000  O
  O1161      1.0000 0.07245  0.74341  0.25659  Biso   1.000  O
  O1162      1.0000 0.09736  0.74341  0.25659  Biso   1.000  O
  O1163      1.0000 0.11182  0.73090  0.26910  Biso   1.000  O
  O1164      1.0000 0.13489  0.73535  0.26464  Biso   1.000  O
  O1165      1.0000 0.19732  0.74341  0.25659  Biso   1.000  O
  O1166      1.0000 0.17242  0.74341  0.25659  Biso   1.000  O
  O1167      1.0000 0.15796  0.75592  0.24408  Biso   1.000  O
  O1168      1.0000 0.13489  0.75147  0.24853  Biso   1.000  O
  O1169      1.0000 0.06341  0.72978  0.27022  Biso   1.000  O
  O1170      1.0000 0.11182  0.75592  0.24408  Biso   1.000  O
  O1171      1.0000 0.10715  0.76638  0.23362  Biso   1.000  O
  O1172      1.0000 0.20637  0.75704  0.24296  Biso   1.000  O
  O1173      1.0000 0.15796  0.73090  0.26910  Biso   1.000  O
  O1174      1.0000 0.16263  0.72044  0.27956  Biso   1.000  O
  O1175      1.0000 0.03187  0.72473  0.27527  Biso   1.000  O
  O1176      1.0000 0.02681  0.69318  0.27022  Biso   1.000  O
  O1177      1.0000 0.01318  0.68414  0.25659  Biso   1.000  O
  O1178      1.0000 0.01318  0.65924  0.25659  Biso   1.000  O
  O1179      1.0000 0.00067  0.64477  0.24408  Biso   1.000  O
  O1180      1.0000 0.99956  0.69318  0.24296  Biso   1.000  O
  O1181      1.0000 0.02569  0.64477  0.26910  Biso   1.000  O
  O1182      1.0000 0.03615  0.64945  0.27956  Biso   1.000  O
  O1183      1.0000 0.99450  0.76209  0.27527  Biso   1.000  O
  O1184      1.0000 0.02681  0.72978  0.30681  Biso   1.000  O
  O1185      1.0000 0.96296  0.72978  0.24296  Biso   1.000  O
  O1186      1.0000 0.02681  0.79364  0.24296  Biso   1.000  O
  O1187      1.0000 0.27956  0.76638  0.40603  Biso   1.000  O
  O1188      1.0000 0.23362  0.72044  0.35055  Biso   1.000  O
  O1189      1.0000 0.19732  0.74341  0.50000  Biso   1.000  O
  O1190      1.0000 0.17242  0.74341  0.50000  Biso   1.000  O
  O1191      1.0000 0.15796  0.75592  0.51251  Biso   1.000  O
  O1192      1.0000 0.13489  0.75147  0.50805  Biso   1.000  O
  O1193      1.0000 0.06341  0.75704  0.51362  Biso   1.000  O
  O1194      1.0000 0.07245  0.74341  0.50000  Biso   1.000  O
  O1195      1.0000 0.09736  0.74341  0.50000  Biso   1.000  O
  O1196      1.0000 0.11182  0.73090  0.48748  Biso   1.000  O
  O1197      1.0000 0.13489  0.73535  0.49194  Biso   1.000  O
  O1198      1.0000 0.20637  0.75704  0.51362  Biso   1.000  O
  O1199      1.0000 0.15796  0.73090  0.48748  Biso   1.000  O
  O1200      1.0000 0.16263  0.72044  0.47703  Biso   1.000  O
  O1201      1.0000 0.06341  0.72978  0.48637  Biso   1.000  O
  O1202      1.0000 0.11182  0.75592  0.51251  Biso   1.000  O
  O1203      1.0000 0.10715  0.76638  0.52297  Biso   1.000  O
  O1204      1.0000 0.24296  0.79364  0.51362  Biso   1.000  O
  O1205      1.0000 0.25659  0.80268  0.50000  Biso   1.000  O
  O1206      1.0000 0.25659  0.82758  0.50000  Biso   1.000  O
  O1207      1.0000 0.26910  0.84204  0.48748  Biso   1.000  O
  O1208      1.0000 0.26465  0.86511  0.49194  Biso   1.000  O
  O1209      1.0000 0.27022  0.93659  0.48637  Biso   1.000  O
  O1210      1.0000 0.25659  0.92755  0.50000  Biso   1.000  O
  O1211      1.0000 0.25659  0.90265  0.50000  Biso   1.000  O
  O1212      1.0000 0.24408  0.88818  0.51251  Biso   1.000  O
  O1213      1.0000 0.24854  0.86511  0.50805  Biso   1.000  O
  O1214      1.0000 0.24408  0.84204  0.51251  Biso   1.000  O
  O1215      1.0000 0.23362  0.83737  0.52297  Biso   1.000  O
  O1216      1.0000 0.26910  0.88818  0.48748  Biso   1.000  O
  O1217      1.0000 0.27956  0.89285  0.47703  Biso   1.000  O
  O1218      1.0000 0.27527  0.96814  0.48131  Biso   1.000  O
  O1219      1.0000 0.03187  0.72473  0.48131  Biso   1.000  O
  O1220      1.0000 0.24296  0.75704  0.55022  Biso   1.000  O
  O1221      1.0000 0.30682  0.75704  0.27022  Biso   1.000  O
  O1222      1.0000 0.99956  0.75704  0.30681  Biso   1.000  O
  O1223      1.0000 0.01318  0.74341  0.31585  Biso   1.000  O
  O1224      1.0000 0.01318  0.74341  0.34076  Biso   1.000  O
  O1225      1.0000 0.02569  0.73090  0.35522  Biso   1.000  O
  O1226      1.0000 0.02124  0.73535  0.37829  Biso   1.000  O
  O1227      1.0000 0.02681  0.72978  0.44977  Biso   1.000  O
  O1228      1.0000 0.01318  0.74341  0.44073  Biso   1.000  O
  O1229      1.0000 0.01318  0.74341  0.41582  Biso   1.000  O
  O1230      1.0000 0.00067  0.75592  0.40136  Biso   1.000  O
  O1231      1.0000 0.00513  0.75147  0.37829  Biso   1.000  O
  O1232      1.0000 0.00067  0.75592  0.35522  Biso   1.000  O
  O1233      1.0000 0.99021  0.76638  0.35055  Biso   1.000  O
  O1234      1.0000 0.99956  0.75704  0.44977  Biso   1.000  O
  O1235      1.0000 0.02569  0.73090  0.40136  Biso   1.000  O
  O1236      1.0000 0.03615  0.72044  0.40603  Biso   1.000  O
  O1237      1.0000 0.10715  0.72044  0.27956  Biso   1.000  O
  O1238      1.0000 0.16263  0.76638  0.23362  Biso   1.000  O
  O1239      1.0000 0.01318  0.80268  0.25659  Biso   1.000  O
  O1240      1.0000 0.01318  0.82758  0.25659  Biso   1.000  O
  O1241      1.0000 0.00067  0.84204  0.26910  Biso   1.000  O
  O1242      1.0000 0.00513  0.86511  0.26464  Biso   1.000  O
  O1243      1.0000 0.01318  0.92755  0.25659  Biso   1.000  O
  O1244      1.0000 0.01318  0.90265  0.25659  Biso   1.000  O
  O1245      1.0000 0.02569  0.88818  0.24408  Biso   1.000  O
  O1246      1.0000 0.02124  0.86511  0.24853  Biso   1.000  O
  O1247      1.0000 0.99956  0.79364  0.27022  Biso   1.000  O
  O1248      1.0000 0.02569  0.84204  0.24408  Biso   1.000  O
  O1249      1.0000 0.03615  0.83737  0.23362  Biso   1.000  O
  O1250      1.0000 0.02681  0.93659  0.24296  Biso   1.000  O
  O1251      1.0000 0.00067  0.88818  0.26910  Biso   1.000  O
  O1252      1.0000 0.99021  0.89285  0.27956  Biso   1.000  O
  O1253      1.0000 0.03187  0.96814  0.23790  Biso   1.000  O
  O1254      1.0000 0.96296  0.75704  0.27022  Biso   1.000  O
  O1255      1.0000 0.03615  0.00979  0.40603  Biso   1.000  O
  O1256      1.0000 0.99021  0.96385  0.35055  Biso   1.000  O
  O1257      1.0000 0.95392  0.98682  0.50000  Biso   1.000  O
  O1258      1.0000 0.92901  0.98682  0.50000  Biso   1.000  O
  O1259      1.0000 0.91455  0.99933  0.51251  Biso   1.000  O
  O1260      1.0000 0.89148  0.99487  0.50805  Biso   1.000  O
  O1261      1.0000 0.89148  0.97876  0.49194  Biso   1.000  O
  O1262      1.0000 0.96296  0.00045  0.51362  Biso   1.000  O
  O1263      1.0000 0.91455  0.97431  0.48748  Biso   1.000  O
  O1264      1.0000 0.91922  0.96385  0.47703  Biso   1.000  O
  O1265      1.0000 0.99956  0.03704  0.51362  Biso   1.000  O
  O1266      1.0000 0.01318  0.04609  0.50000  Biso   1.000  O
  O1267      1.0000 0.01318  0.07099  0.50000  Biso   1.000  O
  O1268      1.0000 0.02569  0.08545  0.48748  Biso   1.000  O
  O1269      1.0000 0.02124  0.62170  0.49194  Biso   1.000  O
  O1270      1.0000 0.00513  0.62170  0.50805  Biso   1.000  O
  O1271      1.0000 0.00067  0.08545  0.51251  Biso   1.000  O
  O1272      1.0000 0.99021  0.08078  0.52297  Biso   1.000  O
  O1273      1.0000 0.99956  0.00045  0.55022  Biso   1.000  O
  O1274      1.0000 0.06341  0.00045  0.27022  Biso   1.000  O
  O1275      1.0000 0.30682  0.00045  0.51362  Biso   1.000  O
  O1276      1.0000 0.31586  0.98682  0.50000  Biso   1.000  O
  O1277      1.0000 0.34076  0.98682  0.50000  Biso   1.000  O
  O1278      1.0000 0.35523  0.97431  0.48748  Biso   1.000  O
  O1279      1.0000 0.30682  0.97319  0.48637  Biso   1.000  O
  O1280      1.0000 0.35523  0.99933  0.51251  Biso   1.000  O
  O1281      1.0000 0.35056  0.00979  0.52297  Biso   1.000  O
  O1282      1.0000 0.02681  0.69318  0.48637  Biso   1.000  O
  O1283      1.0000 0.01318  0.68414  0.50000  Biso   1.000  O
  O1284      1.0000 0.01318  0.65924  0.50000  Biso   1.000  O
  O1285      1.0000 0.00067  0.64477  0.51251  Biso   1.000  O
  O1286      1.0000 0.02569  0.64477  0.48748  Biso   1.000  O
  O1287      1.0000 0.03615  0.64945  0.47703  Biso   1.000  O
  O1288      1.0000 0.25659  0.98682  0.31585  Biso   1.000  O
  O1289      1.0000 0.25659  0.98682  0.34076  Biso   1.000  O
  O1290      1.0000 0.24408  0.99933  0.35522  Biso   1.000  O
  O1291      1.0000 0.24854  0.99487  0.37829  Biso   1.000  O
  O1292      1.0000 0.24296  0.00045  0.44977  Biso   1.000  O
  O1293      1.0000 0.25659  0.98682  0.44073  Biso   1.000  O
  O1294      1.0000 0.25659  0.98682  0.41582  Biso   1.000  O
  O1295      1.0000 0.26910  0.97431  0.40136  Biso   1.000  O
  O1296      1.0000 0.26465  0.97876  0.37829  Biso   1.000  O
  O1297      1.0000 0.24296  0.00045  0.30681  Biso   1.000  O
  O1298      1.0000 0.26910  0.97431  0.35522  Biso   1.000  O
  O1299      1.0000 0.27956  0.96385  0.35055  Biso   1.000  O
  O1300      1.0000 0.27022  0.97319  0.44977  Biso   1.000  O
  O1301      1.0000 0.24408  0.99933  0.40136  Biso   1.000  O
  O1302      1.0000 0.23362  0.00979  0.40603  Biso   1.000  O
  O1303      1.0000 0.20637  0.00045  0.27022  Biso   1.000  O
  O1304      1.0000 0.19732  0.98682  0.25659  Biso   1.000  O
  O1305      1.0000 0.17242  0.98682  0.25659  Biso   1.000  O
  O1306      1.0000 0.15796  0.97431  0.24408  Biso   1.000  O
  O1307      1.0000 0.13489  0.97876  0.24853  Biso   1.000  O
  O1308      1.0000 0.06341  0.97319  0.24296  Biso   1.000  O
  O1309      1.0000 0.07245  0.98682  0.25659  Biso   1.000  O
  O1310      1.0000 0.09736  0.98682  0.25659  Biso   1.000  O
  O1311      1.0000 0.11182  0.99933  0.26910  Biso   1.000  O
  O1312      1.0000 0.13489  0.99487  0.26464  Biso   1.000  O
  O1313      1.0000 0.15796  0.99933  0.26910  Biso   1.000  O
  O1314      1.0000 0.16263  0.00979  0.27956  Biso   1.000  O
  O1315      1.0000 0.11182  0.97431  0.24408  Biso   1.000  O
  O1316      1.0000 0.10715  0.96385  0.23362  Biso   1.000  O
  O1317      1.0000 0.23362  0.89285  0.23362  Biso   1.000  O
  O1318      1.0000 0.27956  0.83737  0.27956  Biso   1.000  O
  O1319      1.0000 0.24296  0.03704  0.27022  Biso   1.000  O
  O1320      1.0000 0.91922  0.00979  0.23362  Biso   1.000  O
  O1321      1.0000 0.23362  0.00979  0.35055  Biso   1.000  O
  O1322      1.0000 0.27956  0.96385  0.40603  Biso   1.000  O
  O1323      1.0000 0.35056  0.96385  0.27956  Biso   1.000  O
  O1324      1.0000 0.25659  0.04609  0.25659  Biso   1.000  O
  O1325      1.0000 0.25659  0.07099  0.25659  Biso   1.000  O
  O1326      1.0000 0.24408  0.08545  0.26910  Biso   1.000  O
  O1327      1.0000 0.24854  0.62170  0.26464  Biso   1.000  O
  O1328      1.0000 0.26465  0.62170  0.24853  Biso   1.000  O
  O1329      1.0000 0.26910  0.08545  0.24408  Biso   1.000  O
  O1330      1.0000 0.27956  0.08078  0.23362  Biso   1.000  O
  O1331      1.0000 0.25659  0.68414  0.25659  Biso   1.000  O
  O1332      1.0000 0.25659  0.65924  0.25659  Biso   1.000  O
  O1333      1.0000 0.26910  0.64477  0.24408  Biso   1.000  O
  O1334      1.0000 0.27022  0.69318  0.24296  Biso   1.000  O
  O1335      1.0000 0.24408  0.64477  0.26910  Biso   1.000  O
  O1336      1.0000 0.23362  0.64945  0.27956  Biso   1.000  O
  O1337      1.0000 0.27527  0.72473  0.23790  Biso   1.000  O
  O1338      1.0000 0.91922  0.76638  0.47703  Biso   1.000  O
  O1339      1.0000 0.25659  0.74341  0.55926  Biso   1.000  O
  O1340      1.0000 0.25659  0.74341  0.58417  Biso   1.000  O
  O1341      1.0000 0.26910  0.73090  0.59863  Biso   1.000  O
  O1342      1.0000 0.26465  0.73535  0.13488  Biso   1.000  O
  O1343      1.0000 0.24854  0.75147  0.13488  Biso   1.000  O
  O1344      1.0000 0.24408  0.75592  0.59863  Biso   1.000  O
  O1345      1.0000 0.23362  0.76638  0.59396  Biso   1.000  O
  O1346      1.0000 0.35056  0.72044  0.52297  Biso   1.000  O
  O1347      1.0000 0.27956  0.83737  0.47703  Biso   1.000  O
  O1348      1.0000 0.23362  0.89285  0.52297  Biso   1.000  O
  O1349      1.0000 0.27022  0.72978  0.20636  Biso   1.000  O
  O1350      1.0000 0.25659  0.74341  0.19732  Biso   1.000  O
  O1351      1.0000 0.25659  0.74341  0.17241  Biso   1.000  O
  O1352      1.0000 0.24408  0.75592  0.15795  Biso   1.000  O
  O1353      1.0000 0.24296  0.75704  0.20636  Biso   1.000  O
  O1354      1.0000 0.26910  0.73090  0.15795  Biso   1.000  O
  O1355      1.0000 0.27956  0.72044  0.16262  Biso   1.000  O
  O1356      1.0000 0.99021  0.72044  0.59396  Biso   1.000  O
  O1357      1.0000 0.03615  0.76638  0.16262  Biso   1.000  O
  O1358      1.0000 0.95392  0.74341  0.25659  Biso   1.000  O
  O1359      1.0000 0.92901  0.74341  0.25659  Biso   1.000  O
  O1360      1.0000 0.91455  0.75592  0.26910  Biso   1.000  O
  O1361      1.0000 0.89148  0.75147  0.26464  Biso   1.000  O
  O1362      1.0000 0.89148  0.73535  0.24853  Biso   1.000  O
  O1363      1.0000 0.91455  0.73090  0.24408  Biso   1.000  O
  O1364      1.0000 0.91922  0.72044  0.23362  Biso   1.000  O
  O1365      1.0000 0.99021  0.83737  0.27956  Biso   1.000  O
  O1366      1.0000 0.03615  0.89285  0.23362  Biso   1.000  O
  O1367      1.0000 0.31586  0.74341  0.25659  Biso   1.000  O
  O1368      1.0000 0.34076  0.74341  0.25659  Biso   1.000  O
  O1369      1.0000 0.35523  0.73090  0.24408  Biso   1.000  O
  O1370      1.0000 0.30682  0.72978  0.24296  Biso   1.000  O
  O1371      1.0000 0.35523  0.75592  0.26910  Biso   1.000  O
  O1372      1.0000 0.35056  0.76638  0.27956  Biso   1.000  O
  O1373      1.0000 0.23362  0.96385  0.59396  Biso   1.000  O
  O1374      1.0000 0.27956  0.00979  0.16262  Biso   1.000  O
  O1375      1.0000 0.16263  0.96385  0.23362  Biso   1.000  O
  O1376      1.0000 0.10715  0.00979  0.27956  Biso   1.000  O
  O1377      1.0000 0.23362  0.08078  0.27956  Biso   1.000  O
  O1378      1.0000 0.27956  0.64945  0.23362  Biso   1.000  O
  O1379      1.0000 0.27956  0.08078  0.52297  Biso   1.000  O
  O1380      1.0000 0.27956  0.72044  0.59396  Biso   1.000  O
  O1381      1.0000 0.16263  0.76638  0.52297  Biso   1.000  O
  O1382      1.0000 0.10715  0.72044  0.47703  Biso   1.000  O
  O1383      1.0000 0.23362  0.64945  0.47703  Biso   1.000  O
  O1384      1.0000 0.23362  0.76638  0.16262  Biso   1.000  O
  O1385      1.0000 0.03615  0.08078  0.27956  Biso   1.000  O
  O1386      1.0000 0.03615  0.72044  0.35055  Biso   1.000  O
  O1387      1.0000 0.99021  0.76638  0.40603  Biso   1.000  O
  O1388      1.0000 0.91922  0.76638  0.27956  Biso   1.000  O
  O1389      1.0000 0.99021  0.64945  0.23362  Biso   1.000  O
  O1390      1.0000 0.35056  0.72044  0.23362  Biso   1.000  O
  O1391      1.0000 0.01318  0.98682  0.55926  Biso   1.000  O
  O1392      1.0000 0.01318  0.98682  0.58417  Biso   1.000  O
  O1393      1.0000 0.02569  0.97431  0.59863  Biso   1.000  O
  O1394      1.0000 0.02124  0.97876  0.13488  Biso   1.000  O
  O1395      1.0000 0.00513  0.99487  0.13488  Biso   1.000  O
  O1396      1.0000 0.00067  0.99933  0.59863  Biso   1.000  O
  O1397      1.0000 0.99021  0.00979  0.59396  Biso   1.000  O
  O1398      1.0000 0.10715  0.96385  0.52297  Biso   1.000  O
  O1399      1.0000 0.16263  0.00979  0.47703  Biso   1.000  O
  O1400      1.0000 0.03615  0.08078  0.47703  Biso   1.000  O
  O1401      1.0000 0.02681  0.97319  0.20636  Biso   1.000  O
  O1402      1.0000 0.01318  0.98682  0.19732  Biso   1.000  O
  O1403      1.0000 0.01318  0.98682  0.17241  Biso   1.000  O
  O1404      1.0000 0.00067  0.99933  0.15795  Biso   1.000  O
  O1405      1.0000 0.99956  0.00045  0.20636  Biso   1.000  O
  O1406      1.0000 0.02569  0.97431  0.15795  Biso   1.000  O
  O1407      1.0000 0.03615  0.96385  0.16262  Biso   1.000  O
  O1408      1.0000 0.99021  0.64945  0.52297  Biso   1.000  O
  O1409      1.0000 0.03615  0.96385  0.59396  Biso   1.000  O
  O1410      1.0000 0.91922  0.00979  0.52297  Biso   1.000  O
  O1411      1.0000 0.99021  0.89285  0.47703  Biso   1.000  O
  O1412      1.0000 0.03615  0.83737  0.52297  Biso   1.000  O
  O1413      1.0000 0.35056  0.96385  0.47703  Biso   1.000  O
  O1414      1.0000 0.48132  0.96814  0.48131  Biso   1.000  O
  O1415      1.0000 0.50000  0.98682  0.50000  Biso   1.000  O
  O1416      1.0000 0.48637  0.97319  0.44977  Biso   1.000  O
  O1417      1.0000 0.50000  0.98682  0.44073  Biso   1.000  O
  O1418      1.0000 0.50000  0.98682  0.41582  Biso   1.000  O
  O1419      1.0000 0.51251  0.99933  0.40136  Biso   1.000  O
  O1420      1.0000 0.50806  0.99487  0.37829  Biso   1.000  O
  O1421      1.0000 0.51363  0.00045  0.30681  Biso   1.000  O
  O1422      1.0000 0.50000  0.98682  0.31585  Biso   1.000  O
  O1423      1.0000 0.50000  0.98682  0.34076  Biso   1.000  O
  O1424      1.0000 0.48749  0.97431  0.35522  Biso   1.000  O
  O1425      1.0000 0.49194  0.97876  0.37829  Biso   1.000  O
  O1426      1.0000 0.51363  0.00045  0.44977  Biso   1.000  O
  O1427      1.0000 0.48749  0.97431  0.40136  Biso   1.000  O
  O1428      1.0000 0.47703  0.96385  0.40603  Biso   1.000  O
  O1429      1.0000 0.48637  0.97319  0.30681  Biso   1.000  O
  O1430      1.0000 0.51251  0.99933  0.35522  Biso   1.000  O
  O1431      1.0000 0.52297  0.00979  0.35055  Biso   1.000  O
  O1432      1.0000 0.51868  0.00550  0.48131  Biso   1.000  O
  O1433      1.0000 0.55023  0.00045  0.48637  Biso   1.000  O
  O1434      1.0000 0.55927  0.98682  0.50000  Biso   1.000  O
  O1435      1.0000 0.58417  0.98682  0.50000  Biso   1.000  O
  O1436      1.0000 0.59864  0.97431  0.51251  Biso   1.000  O
  O1437      1.0000 0.62171  0.97876  0.50805  Biso   1.000  O
  O1438      1.0000 0.69318  0.97319  0.51362  Biso   1.000  O
  O1439      1.0000 0.68414  0.98682  0.50000  Biso   1.000  O
  O1440      1.0000 0.65924  0.98682  0.50000  Biso   1.000  O
  O1441      1.0000 0.64478  0.99933  0.48748  Biso   1.000  O
  O1442      1.0000 0.62171  0.99487  0.49194  Biso   1.000  O
  O1443      1.0000 0.55023  0.97319  0.51362  Biso   1.000  O
  O1444      1.0000 0.59864  0.99933  0.48748  Biso   1.000  O
  O1445      1.0000 0.59396  0.00979  0.47703  Biso   1.000  O
  O1446      1.0000 0.69318  0.00045  0.48637  Biso   1.000  O
  O1447      1.0000 0.64478  0.97431  0.51251  Biso   1.000  O
  O1448      1.0000 0.64945  0.96385  0.52297  Biso   1.000  O
  O1449      1.0000 0.51868  0.96814  0.51868  Biso   1.000  O
  O1450      1.0000 0.51363  0.93659  0.51362  Biso   1.000  O
  O1451      1.0000 0.50000  0.92755  0.50000  Biso   1.000  O
  O1452      1.0000 0.50000  0.90265  0.50000  Biso   1.000  O
  O1453      1.0000 0.48749  0.88818  0.48748  Biso   1.000  O
  O1454      1.0000 0.49194  0.86511  0.49194  Biso   1.000  O
  O1455      1.0000 0.48637  0.79364  0.48637  Biso   1.000  O
  O1456      1.0000 0.50000  0.80268  0.50000  Biso   1.000  O
  O1457      1.0000 0.50000  0.82758  0.50000  Biso   1.000  O
  O1458      1.0000 0.51251  0.84204  0.51251  Biso   1.000  O
  O1459      1.0000 0.50806  0.86511  0.50805  Biso   1.000  O
  O1460      1.0000 0.48637  0.93659  0.48637  Biso   1.000  O
  O1461      1.0000 0.51251  0.88818  0.51251  Biso   1.000  O
  O1462      1.0000 0.52297  0.89285  0.52297  Biso   1.000  O
  O1463      1.0000 0.51363  0.79364  0.51362  Biso   1.000  O
  O1464      1.0000 0.48749  0.84204  0.48748  Biso   1.000  O
  O1465      1.0000 0.47703  0.83737  0.47703  Biso   1.000  O
  O1466      1.0000 0.48132  0.96814  0.27527  Biso   1.000  O
  O1467      1.0000 0.48132  0.76209  0.48131  Biso   1.000  O
  O1468      1.0000 0.72473  0.96814  0.51868  Biso   1.000  O
  O1469      1.0000 0.51868  0.76209  0.51868  Biso   1.000  O
  O1470      1.0000 0.72473  0.00550  0.48131  Biso   1.000  O
  O1471      1.0000 0.51868  0.00550  0.27527  Biso   1.000  O
  O1472      1.0000 0.48132  0.00550  0.51868  Biso   1.000  O
  O1473      1.0000 0.50000  0.98682  0.25659  Biso   1.000  O
  O1474      1.0000 0.48637  0.93659  0.27022  Biso   1.000  O
  O1475      1.0000 0.51363  0.97319  0.55022  Biso   1.000  O
  O1476      1.0000 0.44977  0.97319  0.27022  Biso   1.000  O
  O1477      1.0000 0.44977  0.97319  0.48637  Biso   1.000  O
  O1478      1.0000 0.51363  0.03704  0.48637  Biso   1.000  O
  O1479      1.0000 0.75147  0.99487  0.13488  Biso   1.000  O
  O1480      1.0000 0.75704  0.00045  0.55022  Biso   1.000  O
  O1481      1.0000 0.74341  0.98682  0.55926  Biso   1.000  O
  O1482      1.0000 0.74341  0.98682  0.58417  Biso   1.000  O
  O1483      1.0000 0.73090  0.97431  0.59863  Biso   1.000  O
  O1484      1.0000 0.73535  0.97876  0.13488  Biso   1.000  O
  O1485      1.0000 0.72978  0.97319  0.55022  Biso   1.000  O
  O1486      1.0000 0.75592  0.99933  0.59863  Biso   1.000  O
  O1487      1.0000 0.76638  0.00979  0.59396  Biso   1.000  O
  O1488      1.0000 0.76209  0.00550  0.51868  Biso   1.000  O
  O1489      1.0000 0.74341  0.98682  0.50000  Biso   1.000  O
  O1490      1.0000 0.72978  0.93659  0.51362  Biso   1.000  O
  O1491      1.0000 0.37830  0.97876  0.26464  Biso   1.000  O
  O1492      1.0000 0.44073  0.98682  0.25659  Biso   1.000  O
  O1493      1.0000 0.41583  0.98682  0.25659  Biso   1.000  O
  O1494      1.0000 0.40137  0.99933  0.24408  Biso   1.000  O
  O1495      1.0000 0.37830  0.99487  0.24853  Biso   1.000  O
  O1496      1.0000 0.44977  0.00045  0.24296  Biso   1.000  O
  O1497      1.0000 0.40137  0.97431  0.26910  Biso   1.000  O
  O1498      1.0000 0.40604  0.96385  0.27956  Biso   1.000  O
  O1499      1.0000 0.48132  0.00550  0.23790  Biso   1.000  O
  O1500      1.0000 0.72473  0.96814  0.23790  Biso   1.000  O
  O1501      1.0000 0.74341  0.98682  0.25659  Biso   1.000  O
  O1502      1.0000 0.72978  0.97319  0.20636  Biso   1.000  O
  O1503      1.0000 0.74341  0.98682  0.19732  Biso   1.000  O
  O1504      1.0000 0.74341  0.98682  0.17241  Biso   1.000  O
  O1505      1.0000 0.75592  0.99933  0.15795  Biso   1.000  O
  O1506      1.0000 0.75704  0.00045  0.20636  Biso   1.000  O
  O1507      1.0000 0.73090  0.97431  0.15795  Biso   1.000  O
  O1508      1.0000 0.72044  0.96385  0.16262  Biso   1.000  O
  O1509      1.0000 0.76209  0.00550  0.23790  Biso   1.000  O
  O1510      1.0000 0.79364  0.00045  0.24296  Biso   1.000  O
  O1511      1.0000 0.80268  0.98682  0.25659  Biso   1.000  O
  O1512      1.0000 0.82758  0.98682  0.25659  Biso   1.000  O
  O1513      1.0000 0.84204  0.97431  0.26910  Biso   1.000  O
  O1514      1.0000 0.79364  0.97319  0.27022  Biso   1.000  O
  O1515      1.0000 0.84204  0.99933  0.24408  Biso   1.000  O
  O1516      1.0000 0.83737  0.00979  0.23362  Biso   1.000  O
  O1517      1.0000 0.76209  0.96814  0.27527  Biso   1.000  O
  O1518      1.0000 0.75704  0.93659  0.27022  Biso   1.000  O
  O1519      1.0000 0.74341  0.92755  0.25659  Biso   1.000  O
  O1520      1.0000 0.74341  0.90265  0.25659  Biso   1.000  O
  O1521      1.0000 0.73090  0.88818  0.24408  Biso   1.000  O
  O1522      1.0000 0.73535  0.86511  0.24853  Biso   1.000  O
  O1523      1.0000 0.72978  0.79364  0.24296  Biso   1.000  O
  O1524      1.0000 0.74341  0.80268  0.25659  Biso   1.000  O
  O1525      1.0000 0.74341  0.82758  0.25659  Biso   1.000  O
  O1526      1.0000 0.75592  0.84204  0.26910  Biso   1.000  O
  O1527      1.0000 0.75147  0.86511  0.26464  Biso   1.000  O
  O1528      1.0000 0.72978  0.93659  0.24296  Biso   1.000  O
  O1529      1.0000 0.75592  0.88818  0.26910  Biso   1.000  O
  O1530      1.0000 0.76638  0.89285  0.27956  Biso   1.000  O
  O1531      1.0000 0.75704  0.79364  0.27022  Biso   1.000  O
  O1532      1.0000 0.73090  0.84204  0.24408  Biso   1.000  O
  O1533      1.0000 0.72044  0.83737  0.23362  Biso   1.000  O
  O1534      1.0000 0.72473  0.76209  0.23790  Biso   1.000  O
  O1535      1.0000 0.76209  0.76209  0.27527  Biso   1.000  O
  O1536      1.0000 0.72473  0.00550  0.27527  Biso   1.000  O
  O1537      1.0000 0.75704  0.97319  0.30681  Biso   1.000  O
  O1538      1.0000 0.69318  0.97319  0.24296  Biso   1.000  O
  O1539      1.0000 0.75704  0.03704  0.24296  Biso   1.000  O
  O1540      1.0000 0.73535  0.62170  0.49194  Biso   1.000  O
  O1541      1.0000 0.72978  0.03704  0.48637  Biso   1.000  O
  O1542      1.0000 0.74341  0.04609  0.50000  Biso   1.000  O
  O1543      1.0000 0.74341  0.07099  0.50000  Biso   1.000  O
  O1544      1.0000 0.75592  0.08545  0.51251  Biso   1.000  O
  O1545      1.0000 0.75147  0.62170  0.50805  Biso   1.000  O
  O1546      1.0000 0.75704  0.03704  0.51362  Biso   1.000  O
  O1547      1.0000 0.73090  0.08545  0.48748  Biso   1.000  O
  O1548      1.0000 0.72044  0.08078  0.47703  Biso   1.000  O
  O1549      1.0000 0.37830  0.73535  0.50805  Biso   1.000  O
  O1550      1.0000 0.44977  0.72978  0.51362  Biso   1.000  O
  O1551      1.0000 0.44073  0.74341  0.50000  Biso   1.000  O
  O1552      1.0000 0.41583  0.74341  0.50000  Biso   1.000  O
  O1553      1.0000 0.40137  0.75592  0.48748  Biso   1.000  O
  O1554      1.0000 0.37830  0.75147  0.49194  Biso   1.000  O
  O1555      1.0000 0.44977  0.75704  0.48637  Biso   1.000  O
  O1556      1.0000 0.40137  0.73090  0.51251  Biso   1.000  O
  O1557      1.0000 0.40604  0.72044  0.52296  Biso   1.000  O
  O1558      1.0000 0.48132  0.72473  0.51868  Biso   1.000  O
  O1559      1.0000 0.72473  0.72473  0.48131  Biso   1.000  O
  O1560      1.0000 0.74341  0.74341  0.50000  Biso   1.000  O
  O1561      1.0000 0.72978  0.72978  0.44977  Biso   1.000  O
  O1562      1.0000 0.74341  0.74341  0.44073  Biso   1.000  O
  O1563      1.0000 0.74341  0.74341  0.41582  Biso   1.000  O
  O1564      1.0000 0.75592  0.75592  0.40136  Biso   1.000  O
  O1565      1.0000 0.75147  0.75147  0.37829  Biso   1.000  O
  O1566      1.0000 0.75704  0.75704  0.30681  Biso   1.000  O
  O1567      1.0000 0.74341  0.74341  0.31585  Biso   1.000  O
  O1568      1.0000 0.74341  0.74341  0.34076  Biso   1.000  O
  O1569      1.0000 0.73090  0.73090  0.35522  Biso   1.000  O
  O1570      1.0000 0.73535  0.73535  0.37829  Biso   1.000  O
  O1571      1.0000 0.75704  0.75704  0.44977  Biso   1.000  O
  O1572      1.0000 0.73090  0.73090  0.40136  Biso   1.000  O
  O1573      1.0000 0.72044  0.72044  0.40603  Biso   1.000  O
  O1574      1.0000 0.72978  0.72978  0.30681  Biso   1.000  O
  O1575      1.0000 0.75592  0.75592  0.35522  Biso   1.000  O
  O1576      1.0000 0.76638  0.76638  0.35055  Biso   1.000  O
  O1577      1.0000 0.76209  0.76209  0.48131  Biso   1.000  O
  O1578      1.0000 0.79364  0.75704  0.48637  Biso   1.000  O
  O1579      1.0000 0.80268  0.74341  0.50000  Biso   1.000  O
  O1580      1.0000 0.82758  0.74341  0.50000  Biso   1.000  O
  O1581      1.0000 0.84204  0.73090  0.51251  Biso   1.000  O
  O1582      1.0000 0.79364  0.72978  0.51362  Biso   1.000  O
  O1583      1.0000 0.84204  0.75592  0.48748  Biso   1.000  O
  O1584      1.0000 0.83737  0.76638  0.47703  Biso   1.000  O
  O1585      1.0000 0.76209  0.72473  0.51868  Biso   1.000  O
  O1586      1.0000 0.75704  0.69318  0.51362  Biso   1.000  O
  O1587      1.0000 0.74341  0.68414  0.50000  Biso   1.000  O
  O1588      1.0000 0.74341  0.65924  0.50000  Biso   1.000  O
  O1589      1.0000 0.73090  0.64477  0.48748  Biso   1.000  O
  O1590      1.0000 0.72978  0.69318  0.48637  Biso   1.000  O
  O1591      1.0000 0.75592  0.64477  0.51251  Biso   1.000  O
  O1592      1.0000 0.76638  0.64944  0.52296  Biso   1.000  O
  O1593      1.0000 0.72473  0.72473  0.27527  Biso   1.000  O
  O1594      1.0000 0.72473  0.76209  0.51868  Biso   1.000  O
  O1595      1.0000 0.74341  0.74341  0.25659  Biso   1.000  O
  O1596      1.0000 0.72978  0.69318  0.27022  Biso   1.000  O
  O1597      1.0000 0.75704  0.72978  0.55022  Biso   1.000  O
  O1598      1.0000 0.69318  0.72978  0.27022  Biso   1.000  O
  O1599      1.0000 0.69318  0.72978  0.48637  Biso   1.000  O
  O1600      1.0000 0.75704  0.79364  0.48637  Biso   1.000  O
  O1601      1.0000 0.49194  0.62170  0.24853  Biso   1.000  O
  O1602      1.0000 0.48637  0.03704  0.24296  Biso   1.000  O
  O1603      1.0000 0.50000  0.04609  0.25659  Biso   1.000  O
  O1604      1.0000 0.50000  0.07099  0.25659  Biso   1.000  O
  O1605      1.0000 0.51251  0.08545  0.26910  Biso   1.000  O
  O1606      1.0000 0.50806  0.62170  0.26464  Biso   1.000  O
  O1607      1.0000 0.51363  0.03704  0.27022  Biso   1.000  O
  O1608      1.0000 0.48749  0.08545  0.24408  Biso   1.000  O
  O1609      1.0000 0.47703  0.08078  0.23362  Biso   1.000  O
  O1610      1.0000 0.50806  0.75147  0.13488  Biso   1.000  O
  O1611      1.0000 0.51363  0.75704  0.55022  Biso   1.000  O
  O1612      1.0000 0.50000  0.74341  0.55926  Biso   1.000  O
  O1613      1.0000 0.50000  0.74341  0.58417  Biso   1.000  O
  O1614      1.0000 0.48749  0.73090  0.59863  Biso   1.000  O
  O1615      1.0000 0.49194  0.73535  0.13488  Biso   1.000  O
  O1616      1.0000 0.48637  0.72978  0.55022  Biso   1.000  O
  O1617      1.0000 0.51251  0.75592  0.59863  Biso   1.000  O
  O1618      1.0000 0.52297  0.76638  0.59396  Biso   1.000  O
  O1619      1.0000 0.50000  0.74341  0.50000  Biso   1.000  O
  O1620      1.0000 0.48637  0.69318  0.51362  Biso   1.000  O
  O1621      1.0000 0.48132  0.72473  0.23790  Biso   1.000  O
  O1622      1.0000 0.50000  0.74341  0.25659  Biso   1.000  O
  O1623      1.0000 0.48637  0.72978  0.20636  Biso   1.000  O
  O1624      1.0000 0.50000  0.74341  0.19732  Biso   1.000  O
  O1625      1.0000 0.50000  0.74341  0.17241  Biso   1.000  O
  O1626      1.0000 0.51251  0.75592  0.15795  Biso   1.000  O
  O1627      1.0000 0.51363  0.75704  0.20636  Biso   1.000  O
  O1628      1.0000 0.48749  0.73090  0.15795  Biso   1.000  O
  O1629      1.0000 0.47703  0.72044  0.16262  Biso   1.000  O
  O1630      1.0000 0.51868  0.76209  0.23790  Biso   1.000  O
  O1631      1.0000 0.55023  0.75704  0.24296  Biso   1.000  O
  O1632      1.0000 0.55927  0.74341  0.25659  Biso   1.000  O
  O1633      1.0000 0.58417  0.74341  0.25659  Biso   1.000  O
  O1634      1.0000 0.59864  0.73090  0.26910  Biso   1.000  O
  O1635      1.0000 0.62171  0.73535  0.26464  Biso   1.000  O
  O1636      1.0000 0.68414  0.74341  0.25659  Biso   1.000  O
  O1637      1.0000 0.65924  0.74341  0.25659  Biso   1.000  O
  O1638      1.0000 0.64478  0.75592  0.24408  Biso   1.000  O
  O1639      1.0000 0.62171  0.75147  0.24853  Biso   1.000  O
  O1640      1.0000 0.55023  0.72978  0.27022  Biso   1.000  O
  O1641      1.0000 0.59864  0.75592  0.24408  Biso   1.000  O
  O1642      1.0000 0.59396  0.76638  0.23362  Biso   1.000  O
  O1643      1.0000 0.69318  0.75704  0.24296  Biso   1.000  O
  O1644      1.0000 0.64478  0.73090  0.26910  Biso   1.000  O
  O1645      1.0000 0.64945  0.72044  0.27956  Biso   1.000  O
  O1646      1.0000 0.51868  0.72473  0.27527  Biso   1.000  O
  O1647      1.0000 0.51363  0.69318  0.27022  Biso   1.000  O
  O1648      1.0000 0.50000  0.68414  0.25659  Biso   1.000  O
  O1649      1.0000 0.50000  0.65924  0.25659  Biso   1.000  O
  O1650      1.0000 0.48749  0.64477  0.24408  Biso   1.000  O
  O1651      1.0000 0.48637  0.69318  0.24296  Biso   1.000  O
  O1652      1.0000 0.51251  0.64477  0.26910  Biso   1.000  O
  O1653      1.0000 0.52297  0.64945  0.27956  Biso   1.000  O
  O1654      1.0000 0.48132  0.76209  0.27527  Biso   1.000  O
  O1655      1.0000 0.51363  0.72978  0.30681  Biso   1.000  O
  O1656      1.0000 0.44977  0.72978  0.24296  Biso   1.000  O
  O1657      1.0000 0.51363  0.79364  0.24296  Biso   1.000  O
  O1658      1.0000 0.76638  0.76638  0.40603  Biso   1.000  O
  O1659      1.0000 0.72044  0.72044  0.35055  Biso   1.000  O
  O1660      1.0000 0.68414  0.74341  0.50000  Biso   1.000  O
  O1661      1.0000 0.65924  0.74341  0.50000  Biso   1.000  O
  O1662      1.0000 0.64478  0.75592  0.51251  Biso   1.000  O
  O1663      1.0000 0.62171  0.75147  0.50805  Biso   1.000  O
  O1664      1.0000 0.55023  0.75704  0.51362  Biso   1.000  O
  O1665      1.0000 0.55927  0.74341  0.50000  Biso   1.000  O
  O1666      1.0000 0.58417  0.74341  0.50000  Biso   1.000  O
  O1667      1.0000 0.59864  0.73090  0.48748  Biso   1.000  O
  O1668      1.0000 0.62171  0.73535  0.49194  Biso   1.000  O
  O1669      1.0000 0.69318  0.75704  0.51362  Biso   1.000  O
  O1670      1.0000 0.64478  0.73090  0.48748  Biso   1.000  O
  O1671      1.0000 0.64945  0.72044  0.47703  Biso   1.000  O
  O1672      1.0000 0.55023  0.72978  0.48637  Biso   1.000  O
  O1673      1.0000 0.59864  0.75592  0.51251  Biso   1.000  O
  O1674      1.0000 0.59396  0.76638  0.52296  Biso   1.000  O
  O1675      1.0000 0.72978  0.79364  0.51362  Biso   1.000  O
  O1676      1.0000 0.74341  0.80268  0.50000  Biso   1.000  O
  O1677      1.0000 0.74341  0.82758  0.50000  Biso   1.000  O
  O1678      1.0000 0.75592  0.84204  0.48748  Biso   1.000  O
  O1679      1.0000 0.75147  0.86511  0.49194  Biso   1.000  O
  O1680      1.0000 0.75704  0.93659  0.48637  Biso   1.000  O
  O1681      1.0000 0.74341  0.92755  0.50000  Biso   1.000  O
  O1682      1.0000 0.74341  0.90265  0.50000  Biso   1.000  O
  O1683      1.0000 0.73090  0.88818  0.51251  Biso   1.000  O
  O1684      1.0000 0.73535  0.86511  0.50805  Biso   1.000  O
  O1685      1.0000 0.73090  0.84204  0.51251  Biso   1.000  O
  O1686      1.0000 0.72044  0.83737  0.52297  Biso   1.000  O
  O1687      1.0000 0.75592  0.88818  0.48748  Biso   1.000  O
  O1688      1.0000 0.76638  0.89285  0.47703  Biso   1.000  O
  O1689      1.0000 0.76209  0.96814  0.48131  Biso   1.000  O
  O1690      1.0000 0.51868  0.72473  0.48131  Biso   1.000  O
  O1691      1.0000 0.72978  0.75704  0.55022  Biso   1.000  O
  O1692      1.0000 0.79364  0.75704  0.27022  Biso   1.000  O
  O1693      1.0000 0.48637  0.75704  0.30681  Biso   1.000  O
  O1694      1.0000 0.50000  0.74341  0.31585  Biso   1.000  O
  O1695      1.0000 0.50000  0.74341  0.34076  Biso   1.000  O
  O1696      1.0000 0.51251  0.73090  0.35522  Biso   1.000  O
  O1697      1.0000 0.50806  0.73535  0.37829  Biso   1.000  O
  O1698      1.0000 0.51363  0.72978  0.44977  Biso   1.000  O
  O1699      1.0000 0.50000  0.74341  0.44073  Biso   1.000  O
  O1700      1.0000 0.50000  0.74341  0.41582  Biso   1.000  O
  O1701      1.0000 0.48749  0.75592  0.40136  Biso   1.000  O
  O1702      1.0000 0.49194  0.75147  0.37829  Biso   1.000  O
  O1703      1.0000 0.48749  0.75592  0.35522  Biso   1.000  O
  O1704      1.0000 0.47703  0.76638  0.35055  Biso   1.000  O
  O1705      1.0000 0.48637  0.75704  0.44977  Biso   1.000  O
  O1706      1.0000 0.51251  0.73090  0.40136  Biso   1.000  O
  O1707      1.0000 0.52297  0.72044  0.40603  Biso   1.000  O
  O1708      1.0000 0.59396  0.72044  0.27956  Biso   1.000  O
  O1709      1.0000 0.64945  0.76638  0.23362  Biso   1.000  O
  O1710      1.0000 0.50000  0.80268  0.25659  Biso   1.000  O
  O1711      1.0000 0.50000  0.82758  0.25659  Biso   1.000  O
  O1712      1.0000 0.48749  0.84204  0.26910  Biso   1.000  O
  O1713      1.0000 0.49194  0.86511  0.26464  Biso   1.000  O
  O1714      1.0000 0.50000  0.92755  0.25659  Biso   1.000  O
  O1715      1.0000 0.50000  0.90265  0.25659  Biso   1.000  O
  O1716      1.0000 0.51251  0.88818  0.24408  Biso   1.000  O
  O1717      1.0000 0.50806  0.86511  0.24853  Biso   1.000  O
  O1718      1.0000 0.48637  0.79364  0.27022  Biso   1.000  O
  O1719      1.0000 0.51251  0.84204  0.24408  Biso   1.000  O
  O1720      1.0000 0.52297  0.83737  0.23362  Biso   1.000  O
  O1721      1.0000 0.51363  0.93659  0.24296  Biso   1.000  O
  O1722      1.0000 0.48749  0.88818  0.26910  Biso   1.000  O
  O1723      1.0000 0.47703  0.89285  0.27956  Biso   1.000  O
  O1724      1.0000 0.51868  0.96814  0.23790  Biso   1.000  O
  O1725      1.0000 0.44977  0.75704  0.27022  Biso   1.000  O
  O1726      1.0000 0.52297  0.00979  0.40603  Biso   1.000  O
  O1727      1.0000 0.47703  0.96385  0.35055  Biso   1.000  O
  O1728      1.0000 0.44073  0.98682  0.50000  Biso   1.000  O
  O1729      1.0000 0.41583  0.98682  0.50000  Biso   1.000  O
  O1730      1.0000 0.40137  0.99933  0.51251  Biso   1.000  O
  O1731      1.0000 0.37830  0.99487  0.50805  Biso   1.000  O
  O1732      1.0000 0.37830  0.97876  0.49194  Biso   1.000  O
  O1733      1.0000 0.44977  0.00045  0.51362  Biso   1.000  O
  O1734      1.0000 0.40137  0.97431  0.48748  Biso   1.000  O
  O1735      1.0000 0.40604  0.96385  0.47703  Biso   1.000  O
  O1736      1.0000 0.48637  0.03704  0.51362  Biso   1.000  O
  O1737      1.0000 0.50000  0.04609  0.50000  Biso   1.000  O
  O1738      1.0000 0.50000  0.07099  0.50000  Biso   1.000  O
  O1739      1.0000 0.51251  0.08545  0.48748  Biso   1.000  O
  O1740      1.0000 0.50806  0.62170  0.49194  Biso   1.000  O
  O1741      1.0000 0.49194  0.62170  0.50805  Biso   1.000  O
  O1742      1.0000 0.48749  0.08545  0.51251  Biso   1.000  O
  O1743      1.0000 0.47703  0.08078  0.52297  Biso   1.000  O
  O1744      1.0000 0.48637  0.00045  0.55022  Biso   1.000  O
  O1745      1.0000 0.55023  0.00045  0.27022  Biso   1.000  O
  O1746      1.0000 0.79364  0.00045  0.51362  Biso   1.000  O
  O1747      1.0000 0.80268  0.98682  0.50000  Biso   1.000  O
  O1748      1.0000 0.82758  0.98682  0.50000  Biso   1.000  O
  O1749      1.0000 0.84204  0.97431  0.48748  Biso   1.000  O
  O1750      1.0000 0.79364  0.97319  0.48637  Biso   1.000  O
  O1751      1.0000 0.84204  0.99933  0.51251  Biso   1.000  O
  O1752      1.0000 0.83737  0.00979  0.52297  Biso   1.000  O
  O1753      1.0000 0.51363  0.69318  0.48637  Biso   1.000  O
  O1754      1.0000 0.50000  0.68414  0.50000  Biso   1.000  O
  O1755      1.0000 0.50000  0.65924  0.50000  Biso   1.000  O
  O1756      1.0000 0.48749  0.64477  0.51251  Biso   1.000  O
  O1757      1.0000 0.51251  0.64477  0.48748  Biso   1.000  O
  O1758      1.0000 0.52297  0.64945  0.47703  Biso   1.000  O
  O1759      1.0000 0.74341  0.98682  0.31585  Biso   1.000  O
  O1760      1.0000 0.74341  0.98682  0.34076  Biso   1.000  O
  O1761      1.0000 0.73090  0.99933  0.35522  Biso   1.000  O
  O1762      1.0000 0.73535  0.99487  0.37829  Biso   1.000  O
  O1763      1.0000 0.72978  0.00045  0.44977  Biso   1.000  O
  O1764      1.0000 0.74341  0.98682  0.44073  Biso   1.000  O
  O1765      1.0000 0.74341  0.98682  0.41582  Biso   1.000  O
  O1766      1.0000 0.75592  0.97431  0.40136  Biso   1.000  O
  O1767      1.0000 0.75147  0.97876  0.37829  Biso   1.000  O
  O1768      1.0000 0.72978  0.00045  0.30681  Biso   1.000  O
  O1769      1.0000 0.75592  0.97431  0.35522  Biso   1.000  O
  O1770      1.0000 0.76638  0.96385  0.35055  Biso   1.000  O
  O1771      1.0000 0.75704  0.97319  0.44977  Biso   1.000  O
  O1772      1.0000 0.73090  0.99933  0.40136  Biso   1.000  O
  O1773      1.0000 0.72044  0.00979  0.40603  Biso   1.000  O
  O1774      1.0000 0.69318  0.00045  0.27022  Biso   1.000  O
  O1775      1.0000 0.68414  0.98682  0.25659  Biso   1.000  O
  O1776      1.0000 0.65924  0.98682  0.25659  Biso   1.000  O
  O1777      1.0000 0.64478  0.97431  0.24408  Biso   1.000  O
  O1778      1.0000 0.62171  0.97876  0.24853  Biso   1.000  O
  O1779      1.0000 0.55023  0.97319  0.24296  Biso   1.000  O
  O1780      1.0000 0.55927  0.98682  0.25659  Biso   1.000  O
  O1781      1.0000 0.58417  0.98682  0.25659  Biso   1.000  O
  O1782      1.0000 0.59864  0.99933  0.26910  Biso   1.000  O
  O1783      1.0000 0.62171  0.99487  0.26464  Biso   1.000  O
  O1784      1.0000 0.64478  0.99933  0.26910  Biso   1.000  O
  O1785      1.0000 0.64945  0.00979  0.27956  Biso   1.000  O
  O1786      1.0000 0.59864  0.97431  0.24408  Biso   1.000  O
  O1787      1.0000 0.59396  0.96385  0.23362  Biso   1.000  O
  O1788      1.0000 0.72044  0.89285  0.23362  Biso   1.000  O
  O1789      1.0000 0.76638  0.83737  0.27956  Biso   1.000  O
  O1790      1.0000 0.72978  0.03704  0.27022  Biso   1.000  O
  O1791      1.0000 0.40604  0.00979  0.23362  Biso   1.000  O
  O1792      1.0000 0.72044  0.00979  0.35055  Biso   1.000  O
  O1793      1.0000 0.76638  0.96385  0.40603  Biso   1.000  O
  O1794      1.0000 0.83737  0.96385  0.27956  Biso   1.000  O
  O1795      1.0000 0.74341  0.04609  0.25659  Biso   1.000  O
  O1796      1.0000 0.74341  0.07099  0.25659  Biso   1.000  O
  O1797      1.0000 0.73090  0.08545  0.26910  Biso   1.000  O
  O1798      1.0000 0.73535  0.62170  0.26464  Biso   1.000  O
  O1799      1.0000 0.75147  0.62170  0.24853  Biso   1.000  O
  O1800      1.0000 0.75592  0.08545  0.24408  Biso   1.000  O
  O1801      1.0000 0.76638  0.08078  0.23362  Biso   1.000  O
  O1802      1.0000 0.74341  0.68414  0.25659  Biso   1.000  O
  O1803      1.0000 0.74341  0.65924  0.25659  Biso   1.000  O
  O1804      1.0000 0.75592  0.64477  0.24408  Biso   1.000  O
  O1805      1.0000 0.75704  0.69318  0.24296  Biso   1.000  O
  O1806      1.0000 0.73090  0.64477  0.26910  Biso   1.000  O
  O1807      1.0000 0.72044  0.64945  0.27956  Biso   1.000  O
  O1808      1.0000 0.76209  0.72473  0.23790  Biso   1.000  O
  O1809      1.0000 0.40604  0.76638  0.47703  Biso   1.000  O
  O1810      1.0000 0.74341  0.74341  0.55926  Biso   1.000  O
  O1811      1.0000 0.74341  0.74341  0.58417  Biso   1.000  O
  O1812      1.0000 0.75592  0.73090  0.59863  Biso   1.000  O
  O1813      1.0000 0.75147  0.73535  0.13488  Biso   1.000  O
  O1814      1.0000 0.73535  0.75147  0.13488  Biso   1.000  O
  O1815      1.0000 0.73090  0.75592  0.59863  Biso   1.000  O
  O1816      1.0000 0.72044  0.76638  0.59396  Biso   1.000  O
  O1817      1.0000 0.83737  0.72044  0.52296  Biso   1.000  O
  O1818      1.0000 0.76638  0.83737  0.47703  Biso   1.000  O
  O1819      1.0000 0.72044  0.89285  0.52297  Biso   1.000  O
  O1820      1.0000 0.75704  0.72978  0.20636  Biso   1.000  O
  O1821      1.0000 0.74341  0.74341  0.19732  Biso   1.000  O
  O1822      1.0000 0.74341  0.74341  0.17241  Biso   1.000  O
  O1823      1.0000 0.73090  0.75592  0.15795  Biso   1.000  O
  O1824      1.0000 0.72978  0.75704  0.20636  Biso   1.000  O
  O1825      1.0000 0.75592  0.73090  0.15795  Biso   1.000  O
  O1826      1.0000 0.76638  0.72044  0.16262  Biso   1.000  O
  O1827      1.0000 0.47703  0.72044  0.59396  Biso   1.000  O
  O1828      1.0000 0.52297  0.76638  0.16262  Biso   1.000  O
  O1829      1.0000 0.44073  0.74341  0.25659  Biso   1.000  O
  O1830      1.0000 0.41583  0.74341  0.25659  Biso   1.000  O
  O1831      1.0000 0.40137  0.75592  0.26910  Biso   1.000  O
  O1832      1.0000 0.37830  0.75147  0.26464  Biso   1.000  O
  O1833      1.0000 0.37830  0.73535  0.24853  Biso   1.000  O
  O1834      1.0000 0.40137  0.73090  0.24408  Biso   1.000  O
  O1835      1.0000 0.40604  0.72044  0.23362  Biso   1.000  O
  O1836      1.0000 0.47703  0.83737  0.27956  Biso   1.000  O
  O1837      1.0000 0.52297  0.89285  0.23362  Biso   1.000  O
  O1838      1.0000 0.80268  0.74341  0.25659  Biso   1.000  O
  O1839      1.0000 0.82758  0.74341  0.25659  Biso   1.000  O
  O1840      1.0000 0.84204  0.73090  0.24408  Biso   1.000  O
  O1841      1.0000 0.79364  0.72978  0.24296  Biso   1.000  O
  O1842      1.0000 0.84204  0.75592  0.26910  Biso   1.000  O
  O1843      1.0000 0.83737  0.76638  0.27956  Biso   1.000  O
  O1844      1.0000 0.72044  0.96385  0.59396  Biso   1.000  O
  O1845      1.0000 0.76638  0.00979  0.16262  Biso   1.000  O
  O1846      1.0000 0.64945  0.96385  0.23362  Biso   1.000  O
  O1847      1.0000 0.59396  0.00979  0.27956  Biso   1.000  O
  O1848      1.0000 0.72044  0.08078  0.27956  Biso   1.000  O
  O1849      1.0000 0.76638  0.64945  0.23362  Biso   1.000  O
  O1850      1.0000 0.76638  0.08078  0.52297  Biso   1.000  O
  O1851      1.0000 0.76638  0.72044  0.59396  Biso   1.000  O
  O1852      1.0000 0.64945  0.76638  0.52296  Biso   1.000  O
  O1853      1.0000 0.59396  0.72044  0.47703  Biso   1.000  O
  O1854      1.0000 0.72044  0.64944  0.47703  Biso   1.000  O
  O1855      1.0000 0.72044  0.76638  0.16262  Biso   1.000  O
  O1856      1.0000 0.52297  0.08078  0.27956  Biso   1.000  O
  O1857      1.0000 0.52297  0.72044  0.35055  Biso   1.000  O
  O1858      1.0000 0.47703  0.76638  0.40603  Biso   1.000  O
  O1859      1.0000 0.40604  0.76638  0.27956  Biso   1.000  O
  O1860      1.0000 0.47703  0.64945  0.23362  Biso   1.000  O
  O1861      1.0000 0.83737  0.72044  0.23362  Biso   1.000  O
  O1862      1.0000 0.50000  0.98682  0.55926  Biso   1.000  O
  O1863      1.0000 0.50000  0.98682  0.58417  Biso   1.000  O
  O1864      1.0000 0.51251  0.97431  0.59863  Biso   1.000  O
  O1865      1.0000 0.50806  0.97876  0.13488  Biso   1.000  O
  O1866      1.0000 0.49194  0.99487  0.13488  Biso   1.000  O
  O1867      1.0000 0.48749  0.99933  0.59863  Biso   1.000  O
  O1868      1.0000 0.47703  0.00979  0.59396  Biso   1.000  O
  O1869      1.0000 0.59396  0.96385  0.52297  Biso   1.000  O
  O1870      1.0000 0.64945  0.00979  0.47703  Biso   1.000  O
  O1871      1.0000 0.52297  0.08078  0.47703  Biso   1.000  O
  O1872      1.0000 0.51363  0.97319  0.20636  Biso   1.000  O
  O1873      1.0000 0.50000  0.98682  0.19732  Biso   1.000  O
  O1874      1.0000 0.50000  0.98682  0.17241  Biso   1.000  O
  O1875      1.0000 0.48749  0.99933  0.15795  Biso   1.000  O
  O1876      1.0000 0.48637  0.00045  0.20636  Biso   1.000  O
  O1877      1.0000 0.51251  0.97431  0.15795  Biso   1.000  O
  O1878      1.0000 0.52297  0.96385  0.16262  Biso   1.000  O
  O1879      1.0000 0.47703  0.64945  0.52296  Biso   1.000  O
  O1880      1.0000 0.52297  0.96385  0.59396  Biso   1.000  O
  O1881      1.0000 0.40604  0.00979  0.52297  Biso   1.000  O
  O1882      1.0000 0.47703  0.89285  0.47703  Biso   1.000  O
  O1883      1.0000 0.52297  0.83737  0.52297  Biso   1.000  O
  O1884      1.0000 0.83737  0.96385  0.47703  Biso   1.000  O
  O1885      1.0000 0.99450  0.48132  0.96813  Biso   1.000  O
  O1886      1.0000 0.01318  0.50000  0.98681  Biso   1.000  O
  O1887      1.0000 0.99956  0.48637  0.93659  Biso   1.000  O
  O1888      1.0000 0.01318  0.50000  0.92755  Biso   1.000  O
  O1889      1.0000 0.01318  0.50000  0.90264  Biso   1.000  O
  O1890      1.0000 0.02569  0.51251  0.88818  Biso   1.000  O
  O1891      1.0000 0.02124  0.50806  0.86511  Biso   1.000  O
  O1892      1.0000 0.02681  0.51363  0.79363  Biso   1.000  O
  O1893      1.0000 0.01318  0.50000  0.80267  Biso   1.000  O
  O1894      1.0000 0.01318  0.50000  0.82758  Biso   1.000  O
  O1895      1.0000 0.00067  0.48749  0.84204  Biso   1.000  O
  O1896      1.0000 0.00513  0.49194  0.86511  Biso   1.000  O
  O1897      1.0000 0.02681  0.51363  0.93659  Biso   1.000  O
  O1898      1.0000 0.00067  0.48749  0.88818  Biso   1.000  O
  O1899      1.0000 0.99021  0.47703  0.89285  Biso   1.000  O
  O1900      1.0000 0.99956  0.48637  0.79363  Biso   1.000  O
  O1901      1.0000 0.02569  0.51251  0.84204  Biso   1.000  O
  O1902      1.0000 0.03615  0.52297  0.83737  Biso   1.000  O
  O1903      1.0000 0.03187  0.51868  0.96813  Biso   1.000  O
  O1904      1.0000 0.06341  0.51363  0.97318  Biso   1.000  O
  O1905      1.0000 0.07245  0.50000  0.98681  Biso   1.000  O
  O1906      1.0000 0.09736  0.50000  0.98681  Biso   1.000  O
  O1907      1.0000 0.11182  0.48749  0.99932  Biso   1.000  O
  O1908      1.0000 0.13489  0.49194  0.99487  Biso   1.000  O
  O1909      1.0000 0.20637  0.48637  0.00044  Biso   1.000  O
  O1910      1.0000 0.19732  0.50000  0.98681  Biso   1.000  O
  O1911      1.0000 0.17242  0.50000  0.98681  Biso   1.000  O
  O1912      1.0000 0.15796  0.51251  0.97430  Biso   1.000  O
  O1913      1.0000 0.13489  0.50806  0.97876  Biso   1.000  O
  O1914      1.0000 0.06341  0.48637  0.00044  Biso   1.000  O
  O1915      1.0000 0.11182  0.51251  0.97430  Biso   1.000  O
  O1916      1.0000 0.10715  0.52297  0.96384  Biso   1.000  O
  O1917      1.0000 0.20637  0.51363  0.97318  Biso   1.000  O
  O1918      1.0000 0.15796  0.48749  0.99932  Biso   1.000  O
  O1919      1.0000 0.16263  0.47703  0.00978  Biso   1.000  O
  O1920      1.0000 0.03187  0.48132  0.00550  Biso   1.000  O
  O1921      1.0000 0.02681  0.44977  0.00044  Biso   1.000  O
  O1922      1.0000 0.01318  0.44073  0.98681  Biso   1.000  O
  O1923      1.0000 0.01318  0.41583  0.98681  Biso   1.000  O
  O1924      1.0000 0.00067  0.40137  0.97430  Biso   1.000  O
  O1925      1.0000 0.00513  0.37830  0.97876  Biso   1.000  O
  O1926      1.0000 0.99956  0.30682  0.97318  Biso   1.000  O
  O1927      1.0000 0.01318  0.31586  0.98681  Biso   1.000  O
  O1928      1.0000 0.01318  0.34076  0.98681  Biso   1.000  O
  O1929      1.0000 0.02569  0.35523  0.99932  Biso   1.000  O
  O1930      1.0000 0.02124  0.37830  0.99487  Biso   1.000  O
  O1931      1.0000 0.99956  0.44977  0.97318  Biso   1.000  O
  O1932      1.0000 0.02569  0.40137  0.99932  Biso   1.000  O
  O1933      1.0000 0.03615  0.40604  0.00978  Biso   1.000  O
  O1934      1.0000 0.02681  0.30682  0.00044  Biso   1.000  O
  O1935      1.0000 0.00067  0.35523  0.97430  Biso   1.000  O
  O1936      1.0000 0.99021  0.35056  0.96384  Biso   1.000  O
  O1937      1.0000 0.99450  0.48132  0.76209  Biso   1.000  O
  O1938      1.0000 0.99450  0.27527  0.96813  Biso   1.000  O
  O1939      1.0000 0.23791  0.48132  0.00550  Biso   1.000  O
  O1940      1.0000 0.03187  0.27527  0.00550  Biso   1.000  O
  O1941      1.0000 0.23791  0.51868  0.96813  Biso   1.000  O
  O1942      1.0000 0.03187  0.51868  0.76209  Biso   1.000  O
  O1943      1.0000 0.99450  0.51868  0.00550  Biso   1.000  O
  O1944      1.0000 0.01318  0.50000  0.74340  Biso   1.000  O
  O1945      1.0000 0.99956  0.44977  0.75703  Biso   1.000  O
  O1946      1.0000 0.02681  0.48637  0.03704  Biso   1.000  O
  O1947      1.0000 0.96296  0.48637  0.75703  Biso   1.000  O
  O1948      1.0000 0.96296  0.48637  0.97318  Biso   1.000  O
  O1949      1.0000 0.02681  0.55023  0.97318  Biso   1.000  O
  O1950      1.0000 0.26465  0.50806  0.62170  Biso   1.000  O
  O1951      1.0000 0.27022  0.51363  0.03704  Biso   1.000  O
  O1952      1.0000 0.25659  0.50000  0.04608  Biso   1.000  O
  O1953      1.0000 0.25659  0.50000  0.07099  Biso   1.000  O
  O1954      1.0000 0.24408  0.48749  0.08545  Biso   1.000  O
  O1955      1.0000 0.24854  0.49194  0.62170  Biso   1.000  O
  O1956      1.0000 0.24296  0.48637  0.03704  Biso   1.000  O
  O1957      1.0000 0.26910  0.51251  0.08545  Biso   1.000  O
  O1958      1.0000 0.27956  0.52297  0.08078  Biso   1.000  O
  O1959      1.0000 0.27527  0.51868  0.00550  Biso   1.000  O
  O1960      1.0000 0.25659  0.50000  0.98681  Biso   1.000  O
  O1961      1.0000 0.24296  0.44977  0.00044  Biso   1.000  O
  O1962      1.0000 0.89148  0.49194  0.75146  Biso   1.000  O
  O1963      1.0000 0.95392  0.50000  0.74340  Biso   1.000  O
  O1964      1.0000 0.92901  0.50000  0.74340  Biso   1.000  O
  O1965      1.0000 0.91455  0.51251  0.73089  Biso   1.000  O
  O1966      1.0000 0.89148  0.50806  0.73535  Biso   1.000  O
  O1967      1.0000 0.96296  0.51363  0.72978  Biso   1.000  O
  O1968      1.0000 0.91455  0.48749  0.75591  Biso   1.000  O
  O1969      1.0000 0.91922  0.47703  0.76637  Biso   1.000  O
  O1970      1.0000 0.99450  0.51868  0.72472  Biso   1.000  O
  O1971      1.0000 0.23791  0.48132  0.72472  Biso   1.000  O
  O1972      1.0000 0.25659  0.50000  0.74340  Biso   1.000  O
  O1973      1.0000 0.24296  0.48637  0.69318  Biso   1.000  O
  O1974      1.0000 0.25659  0.50000  0.68414  Biso   1.000  O
  O1975      1.0000 0.25659  0.50000  0.65923  Biso   1.000  O
  O1976      1.0000 0.26910  0.51251  0.64477  Biso   1.000  O
  O1977      1.0000 0.27022  0.51363  0.69318  Biso   1.000  O
  O1978      1.0000 0.24408  0.48749  0.64477  Biso   1.000  O
  O1979      1.0000 0.23362  0.47703  0.64944  Biso   1.000  O
  O1980      1.0000 0.27527  0.51868  0.72472  Biso   1.000  O
  O1981      1.0000 0.30682  0.51363  0.72978  Biso   1.000  O
  O1982      1.0000 0.31586  0.50000  0.74340  Biso   1.000  O
  O1983      1.0000 0.34076  0.50000  0.74340  Biso   1.000  O
  O1984      1.0000 0.35523  0.48749  0.75591  Biso   1.000  O
  O1985      1.0000 0.30682  0.48637  0.75703  Biso   1.000  O
  O1986      1.0000 0.35523  0.51251  0.73089  Biso   1.000  O
  O1987      1.0000 0.35056  0.52297  0.72043  Biso   1.000  O
  O1988      1.0000 0.27527  0.48132  0.76209  Biso   1.000  O
  O1989      1.0000 0.27022  0.44977  0.75703  Biso   1.000  O
  O1990      1.0000 0.25659  0.44073  0.74340  Biso   1.000  O
  O1991      1.0000 0.25659  0.41583  0.74340  Biso   1.000  O
  O1992      1.0000 0.24408  0.40137  0.73089  Biso   1.000  O
  O1993      1.0000 0.24854  0.37830  0.73535  Biso   1.000  O
  O1994      1.0000 0.24296  0.30682  0.72978  Biso   1.000  O
  O1995      1.0000 0.25659  0.31586  0.74340  Biso   1.000  O
  O1996      1.0000 0.25659  0.34076  0.74340  Biso   1.000  O
  O1997      1.0000 0.26910  0.35523  0.75591  Biso   1.000  O
  O1998      1.0000 0.26465  0.37830  0.75146  Biso   1.000  O
  O1999      1.0000 0.24296  0.44977  0.72978  Biso   1.000  O
  O2000      1.0000 0.26910  0.40137  0.75591  Biso   1.000  O
  O2001      1.0000 0.27956  0.40604  0.76637  Biso   1.000  O
  O2002      1.0000 0.27022  0.30682  0.75703  Biso   1.000  O
  O2003      1.0000 0.24408  0.35523  0.73089  Biso   1.000  O
  O2004      1.0000 0.23362  0.35056  0.72043  Biso   1.000  O
  O2005      1.0000 0.23791  0.27527  0.72472  Biso   1.000  O
  O2006      1.0000 0.27527  0.27527  0.76209  Biso   1.000  O
  O2007      1.0000 0.23791  0.51868  0.76209  Biso   1.000  O
  O2008      1.0000 0.27022  0.48637  0.79363  Biso   1.000  O
  O2009      1.0000 0.20637  0.48637  0.72978  Biso   1.000  O
  O2010      1.0000 0.27022  0.55023  0.72978  Biso   1.000  O
  O2011      1.0000 0.24854  0.13489  0.97876  Biso   1.000  O
  O2012      1.0000 0.24296  0.55023  0.97318  Biso   1.000  O
  O2013      1.0000 0.25659  0.55927  0.98681  Biso   1.000  O
  O2014      1.0000 0.25659  0.58417  0.98681  Biso   1.000  O
  O2015      1.0000 0.26910  0.59863  0.99932  Biso   1.000  O
  O2016      1.0000 0.26465  0.13489  0.99487  Biso   1.000  O
  O2017      1.0000 0.27022  0.55023  0.00044  Biso   1.000  O
  O2018      1.0000 0.24408  0.59863  0.97430  Biso   1.000  O
  O2019      1.0000 0.23362  0.59396  0.96384  Biso   1.000  O
  O2020      1.0000 0.89148  0.24853  0.99487  Biso   1.000  O
  O2021      1.0000 0.96296  0.24296  0.00044  Biso   1.000  O
  O2022      1.0000 0.95392  0.25659  0.98681  Biso   1.000  O
  O2023      1.0000 0.92901  0.25659  0.98681  Biso   1.000  O
  O2024      1.0000 0.91455  0.26910  0.97430  Biso   1.000  O
  O2025      1.0000 0.89148  0.26465  0.97876  Biso   1.000  O
  O2026      1.0000 0.96296  0.27022  0.97318  Biso   1.000  O
  O2027      1.0000 0.91455  0.24408  0.99932  Biso   1.000  O
  O2028      1.0000 0.91922  0.23362  0.00978  Biso   1.000  O
  O2029      1.0000 0.99450  0.23791  0.00550  Biso   1.000  O
  O2030      1.0000 0.23791  0.23791  0.96813  Biso   1.000  O
  O2031      1.0000 0.25659  0.25659  0.98681  Biso   1.000  O
  O2032      1.0000 0.24296  0.24296  0.93659  Biso   1.000  O
  O2033      1.0000 0.25659  0.25659  0.92755  Biso   1.000  O
  O2034      1.0000 0.25659  0.25659  0.90264  Biso   1.000  O
  O2035      1.0000 0.26910  0.26910  0.88818  Biso   1.000  O
  O2036      1.0000 0.26465  0.26465  0.86511  Biso   1.000  O
  O2037      1.0000 0.27022  0.27022  0.79363  Biso   1.000  O
  O2038      1.0000 0.25659  0.25659  0.80267  Biso   1.000  O
  O2039      1.0000 0.25659  0.25659  0.82758  Biso   1.000  O
  O2040      1.0000 0.24408  0.24408  0.84204  Biso   1.000  O
  O2041      1.0000 0.24854  0.24853  0.86511  Biso   1.000  O
  O2042      1.0000 0.27022  0.27022  0.93659  Biso   1.000  O
  O2043      1.0000 0.24408  0.24408  0.88818  Biso   1.000  O
  O2044      1.0000 0.23362  0.23362  0.89285  Biso   1.000  O
  O2045      1.0000 0.24296  0.24296  0.79363  Biso   1.000  O
  O2046      1.0000 0.26910  0.26910  0.84204  Biso   1.000  O
  O2047      1.0000 0.27956  0.27956  0.83737  Biso   1.000  O
  O2048      1.0000 0.27527  0.27527  0.96813  Biso   1.000  O
  O2049      1.0000 0.30682  0.27022  0.97318  Biso   1.000  O
  O2050      1.0000 0.31586  0.25659  0.98681  Biso   1.000  O
  O2051      1.0000 0.34076  0.25659  0.98681  Biso   1.000  O
  O2052      1.0000 0.35523  0.24408  0.99932  Biso   1.000  O
  O2053      1.0000 0.30682  0.24296  0.00044  Biso   1.000  O
  O2054      1.0000 0.35523  0.26910  0.97430  Biso   1.000  O
  O2055      1.0000 0.35056  0.27956  0.96384  Biso   1.000  O
  O2056      1.0000 0.27527  0.23791  0.00550  Biso   1.000  O
  O2057      1.0000 0.27022  0.20637  0.00044  Biso   1.000  O
  O2058      1.0000 0.25659  0.19732  0.98681  Biso   1.000  O
  O2059      1.0000 0.25659  0.17242  0.98681  Biso   1.000  O
  O2060      1.0000 0.24408  0.15796  0.97430  Biso   1.000  O
  O2061      1.0000 0.24296  0.20637  0.97318  Biso   1.000  O
  O2062      1.0000 0.26910  0.15796  0.99932  Biso   1.000  O
  O2063      1.0000 0.27956  0.16263  0.00978  Biso   1.000  O
  O2064      1.0000 0.23791  0.23791  0.76209  Biso   1.000  O
  O2065      1.0000 0.23791  0.27527  0.00550  Biso   1.000  O
  O2066      1.0000 0.25659  0.25659  0.74340  Biso   1.000  O
  O2067      1.0000 0.24296  0.20637  0.75703  Biso   1.000  O
  O2068      1.0000 0.27022  0.24296  0.03704  Biso   1.000  O
  O2069      1.0000 0.20637  0.24296  0.75703  Biso   1.000  O
  O2070      1.0000 0.20637  0.24296  0.97318  Biso   1.000  O
  O2071      1.0000 0.27022  0.30682  0.97318  Biso   1.000  O
  O2072      1.0000 0.00513  0.13489  0.73535  Biso   1.000  O
  O2073      1.0000 0.99956  0.55023  0.72978  Biso   1.000  O
  O2074      1.0000 0.01318  0.55927  0.74340  Biso   1.000  O
  O2075      1.0000 0.01318  0.58417  0.74340  Biso   1.000  O
  O2076      1.0000 0.02569  0.59863  0.75591  Biso   1.000  O
  O2077      1.0000 0.02124  0.13489  0.75146  Biso   1.000  O
  O2078      1.0000 0.02681  0.55023  0.75703  Biso   1.000  O
  O2079      1.0000 0.00067  0.59863  0.73089  Biso   1.000  O
  O2080      1.0000 0.99021  0.59396  0.72043  Biso   1.000  O
  O2081      1.0000 0.02124  0.26465  0.62170  Biso   1.000  O
  O2082      1.0000 0.02681  0.27022  0.03704  Biso   1.000  O
  O2083      1.0000 0.01318  0.25659  0.04608  Biso   1.000  O
  O2084      1.0000 0.01318  0.25659  0.07099  Biso   1.000  O
  O2085      1.0000 0.00067  0.24408  0.08545  Biso   1.000  O
  O2086      1.0000 0.00513  0.24853  0.62170  Biso   1.000  O
  O2087      1.0000 0.99956  0.24296  0.03704  Biso   1.000  O
  O2088      1.0000 0.02569  0.26910  0.08545  Biso   1.000  O
  O2089      1.0000 0.03615  0.27956  0.08078  Biso   1.000  O
  O2090      1.0000 0.01318  0.25659  0.98681  Biso   1.000  O
  O2091      1.0000 0.99956  0.20637  0.00044  Biso   1.000  O
  O2092      1.0000 0.99450  0.23791  0.72472  Biso   1.000  O
  O2093      1.0000 0.01318  0.25659  0.74340  Biso   1.000  O
  O2094      1.0000 0.99956  0.24296  0.69318  Biso   1.000  O
  O2095      1.0000 0.01318  0.25659  0.68414  Biso   1.000  O
  O2096      1.0000 0.01318  0.25659  0.65923  Biso   1.000  O
  O2097      1.0000 0.02569  0.26910  0.64477  Biso   1.000  O
  O2098      1.0000 0.02681  0.27022  0.69318  Biso   1.000  O
  O2099      1.0000 0.00067  0.24408  0.64477  Biso   1.000  O
  O2100      1.0000 0.99021  0.23362  0.64944  Biso   1.000  O
  O2101      1.0000 0.03187  0.27527  0.72472  Biso   1.000  O
  O2102      1.0000 0.06341  0.27022  0.72978  Biso   1.000  O
  O2103      1.0000 0.07245  0.25659  0.74340  Biso   1.000  O
  O2104      1.0000 0.09736  0.25659  0.74340  Biso   1.000  O
  O2105      1.0000 0.11182  0.24408  0.75591  Biso   1.000  O
  O2106      1.0000 0.13489  0.24853  0.75146  Biso   1.000  O
  O2107      1.0000 0.19732  0.25659  0.74340  Biso   1.000  O
  O2108      1.0000 0.17242  0.25659  0.74340  Biso   1.000  O
  O2109      1.0000 0.15796  0.26910  0.73089  Biso   1.000  O
  O2110      1.0000 0.13489  0.26465  0.73535  Biso   1.000  O
  O2111      1.0000 0.06341  0.24296  0.75703  Biso   1.000  O
  O2112      1.0000 0.11182  0.26910  0.73089  Biso   1.000  O
  O2113      1.0000 0.10715  0.27956  0.72043  Biso   1.000  O
  O2114      1.0000 0.20637  0.27022  0.72978  Biso   1.000  O
  O2115      1.0000 0.15796  0.24408  0.75591  Biso   1.000  O
  O2116      1.0000 0.16263  0.23362  0.76637  Biso   1.000  O
  O2117      1.0000 0.03187  0.23791  0.76209  Biso   1.000  O
  O2118      1.0000 0.02681  0.20637  0.75703  Biso   1.000  O
  O2119      1.0000 0.01318  0.19732  0.74340  Biso   1.000  O
  O2120      1.0000 0.01318  0.17242  0.74340  Biso   1.000  O
  O2121      1.0000 0.00067  0.15796  0.73089  Biso   1.000  O
  O2122      1.0000 0.99956  0.20637  0.72978  Biso   1.000  O
  O2123      1.0000 0.02569  0.15796  0.75591  Biso   1.000  O
  O2124      1.0000 0.03615  0.16263  0.76637  Biso   1.000  O
  O2125      1.0000 0.99450  0.27527  0.76209  Biso   1.000  O
  O2126      1.0000 0.02681  0.24296  0.79363  Biso   1.000  O
  O2127      1.0000 0.96296  0.24296  0.72978  Biso   1.000  O
  O2128      1.0000 0.02681  0.30682  0.72978  Biso   1.000  O
  O2129      1.0000 0.27956  0.27956  0.89285  Biso   1.000  O
  O2130      1.0000 0.23362  0.23362  0.83737  Biso   1.000  O
  O2131      1.0000 0.19732  0.25659  0.98681  Biso   1.000  O
  O2132      1.0000 0.17242  0.25659  0.98681  Biso   1.000  O
  O2133      1.0000 0.15796  0.26910  0.99932  Biso   1.000  O
  O2134      1.0000 0.13489  0.26465  0.99487  Biso   1.000  O
  O2135      1.0000 0.06341  0.27022  0.00044  Biso   1.000  O
  O2136      1.0000 0.07245  0.25659  0.98681  Biso   1.000  O
  O2137      1.0000 0.09736  0.25659  0.98681  Biso   1.000  O
  O2138      1.0000 0.11182  0.24408  0.97430  Biso   1.000  O
  O2139      1.0000 0.13489  0.24853  0.97876  Biso   1.000  O
  O2140      1.0000 0.20637  0.27022  0.00044  Biso   1.000  O
  O2141      1.0000 0.15796  0.24408  0.97430  Biso   1.000  O
  O2142      1.0000 0.16263  0.23362  0.96384  Biso   1.000  O
  O2143      1.0000 0.06341  0.24296  0.97318  Biso   1.000  O
  O2144      1.0000 0.11182  0.26910  0.99932  Biso   1.000  O
  O2145      1.0000 0.10715  0.27956  0.00978  Biso   1.000  O
  O2146      1.0000 0.24296  0.30682  0.00044  Biso   1.000  O
  O2147      1.0000 0.25659  0.31586  0.98681  Biso   1.000  O
  O2148      1.0000 0.25659  0.34076  0.98681  Biso   1.000  O
  O2149      1.0000 0.26910  0.35523  0.97430  Biso   1.000  O
  O2150      1.0000 0.26465  0.37830  0.97876  Biso   1.000  O
  O2151      1.0000 0.27022  0.44977  0.97318  Biso   1.000  O
  O2152      1.0000 0.25659  0.44073  0.98681  Biso   1.000  O
  O2153      1.0000 0.25659  0.41583  0.98681  Biso   1.000  O
  O2154      1.0000 0.24408  0.40137  0.99932  Biso   1.000  O
  O2155      1.0000 0.24854  0.37830  0.99487  Biso   1.000  O
  O2156      1.0000 0.24408  0.35523  0.99932  Biso   1.000  O
  O2157      1.0000 0.23362  0.35056  0.00978  Biso   1.000  O
  O2158      1.0000 0.26910  0.40137  0.97430  Biso   1.000  O
  O2159      1.0000 0.27956  0.40604  0.96384  Biso   1.000  O
  O2160      1.0000 0.27527  0.48132  0.96813  Biso   1.000  O
  O2161      1.0000 0.03187  0.23791  0.96813  Biso   1.000  O
  O2162      1.0000 0.24296  0.27022  0.03704  Biso   1.000  O
  O2163      1.0000 0.30682  0.27022  0.75703  Biso   1.000  O
  O2164      1.0000 0.99956  0.27022  0.79363  Biso   1.000  O
  O2165      1.0000 0.01318  0.25659  0.80267  Biso   1.000  O
  O2166      1.0000 0.01318  0.25659  0.82758  Biso   1.000  O
  O2167      1.0000 0.02569  0.24408  0.84204  Biso   1.000  O
  O2168      1.0000 0.02124  0.24853  0.86511  Biso   1.000  O
  O2169      1.0000 0.02681  0.24296  0.93659  Biso   1.000  O
  O2170      1.0000 0.01318  0.25659  0.92755  Biso   1.000  O
  O2171      1.0000 0.01318  0.25659  0.90264  Biso   1.000  O
  O2172      1.0000 0.00067  0.26910  0.88818  Biso   1.000  O
  O2173      1.0000 0.00513  0.26465  0.86511  Biso   1.000  O
  O2174      1.0000 0.00067  0.26910  0.84204  Biso   1.000  O
  O2175      1.0000 0.99021  0.27956  0.83737  Biso   1.000  O
  O2176      1.0000 0.99956  0.27022  0.93659  Biso   1.000  O
  O2177      1.0000 0.02569  0.24408  0.88818  Biso   1.000  O
  O2178      1.0000 0.03615  0.23362  0.89285  Biso   1.000  O
  O2179      1.0000 0.10715  0.23362  0.76637  Biso   1.000  O
  O2180      1.0000 0.16263  0.27956  0.72043  Biso   1.000  O
  O2181      1.0000 0.01318  0.31586  0.74340  Biso   1.000  O
  O2182      1.0000 0.01318  0.34076  0.74340  Biso   1.000  O
  O2183      1.0000 0.00067  0.35523  0.75591  Biso   1.000  O
  O2184      1.0000 0.00513  0.37830  0.75146  Biso   1.000  O
  O2185      1.0000 0.01318  0.44073  0.74340  Biso   1.000  O
  O2186      1.0000 0.01318  0.41583  0.74340  Biso   1.000  O
  O2187      1.0000 0.02569  0.40137  0.73089  Biso   1.000  O
  O2188      1.0000 0.02124  0.37830  0.73535  Biso   1.000  O
  O2189      1.0000 0.99956  0.30682  0.75703  Biso   1.000  O
  O2190      1.0000 0.02569  0.35523  0.73089  Biso   1.000  O
  O2191      1.0000 0.03615  0.35056  0.72043  Biso   1.000  O
  O2192      1.0000 0.02681  0.44977  0.72978  Biso   1.000  O
  O2193      1.0000 0.00067  0.40137  0.75591  Biso   1.000  O
  O2194      1.0000 0.99021  0.40604  0.76637  Biso   1.000  O
  O2195      1.0000 0.03187  0.48132  0.72472  Biso   1.000  O
  O2196      1.0000 0.96296  0.27022  0.75703  Biso   1.000  O
  O2197      1.0000 0.03615  0.52297  0.89285  Biso   1.000  O
  O2198      1.0000 0.99021  0.47703  0.83737  Biso   1.000  O
  O2199      1.0000 0.95392  0.50000  0.98681  Biso   1.000  O
  O2200      1.0000 0.92901  0.50000  0.98681  Biso   1.000  O
  O2201      1.0000 0.91455  0.51251  0.99932  Biso   1.000  O
  O2202      1.0000 0.89148  0.50806  0.99487  Biso   1.000  O
  O2203      1.0000 0.89148  0.49194  0.97876  Biso   1.000  O
  O2204      1.0000 0.96296  0.51363  0.00044  Biso   1.000  O
  O2205      1.0000 0.91455  0.48749  0.97430  Biso   1.000  O
  O2206      1.0000 0.91922  0.47703  0.96384  Biso   1.000  O
  O2207      1.0000 0.99956  0.55023  0.00044  Biso   1.000  O
  O2208      1.0000 0.01318  0.55927  0.98681  Biso   1.000  O
  O2209      1.0000 0.01318  0.58417  0.98681  Biso   1.000  O
  O2210      1.0000 0.02569  0.59863  0.97430  Biso   1.000  O
  O2211      1.0000 0.02124  0.13489  0.97876  Biso   1.000  O
  O2212      1.0000 0.00513  0.13489  0.99487  Biso   1.000  O
  O2213      1.0000 0.00067  0.59863  0.99932  Biso   1.000  O
  O2214      1.0000 0.99021  0.59396  0.00978  Biso   1.000  O
  O2215      1.0000 0.99956  0.51363  0.03704  Biso   1.000  O
  O2216      1.0000 0.06341  0.51363  0.75703  Biso   1.000  O
  O2217      1.0000 0.30682  0.51363  0.00044  Biso   1.000  O
  O2218      1.0000 0.31586  0.50000  0.98681  Biso   1.000  O
  O2219      1.0000 0.34076  0.50000  0.98681  Biso   1.000  O
  O2220      1.0000 0.35523  0.48749  0.97430  Biso   1.000  O
  O2221      1.0000 0.30682  0.48637  0.97318  Biso   1.000  O
  O2222      1.0000 0.35523  0.51251  0.99932  Biso   1.000  O
  O2223      1.0000 0.35056  0.52297  0.00978  Biso   1.000  O
  O2224      1.0000 0.02681  0.20637  0.97318  Biso   1.000  O
  O2225      1.0000 0.01318  0.19732  0.98681  Biso   1.000  O
  O2226      1.0000 0.01318  0.17242  0.98681  Biso   1.000  O
  O2227      1.0000 0.00067  0.15796  0.99932  Biso   1.000  O
  O2228      1.0000 0.02569  0.15796  0.97430  Biso   1.000  O
  O2229      1.0000 0.03615  0.16263  0.96384  Biso   1.000  O
  O2230      1.0000 0.25659  0.50000  0.80267  Biso   1.000  O
  O2231      1.0000 0.25659  0.50000  0.82758  Biso   1.000  O
  O2232      1.0000 0.24408  0.51251  0.84204  Biso   1.000  O
  O2233      1.0000 0.24854  0.50806  0.86511  Biso   1.000  O
  O2234      1.0000 0.24296  0.51363  0.93659  Biso   1.000  O
  O2235      1.0000 0.25659  0.50000  0.92755  Biso   1.000  O
  O2236      1.0000 0.25659  0.50000  0.90264  Biso   1.000  O
  O2237      1.0000 0.26910  0.48749  0.88818  Biso   1.000  O
  O2238      1.0000 0.26465  0.49194  0.86511  Biso   1.000  O
  O2239      1.0000 0.24296  0.51363  0.79363  Biso   1.000  O
  O2240      1.0000 0.26910  0.48749  0.84204  Biso   1.000  O
  O2241      1.0000 0.27956  0.47703  0.83737  Biso   1.000  O
  O2242      1.0000 0.27022  0.48637  0.93659  Biso   1.000  O
  O2243      1.0000 0.24408  0.51251  0.88818  Biso   1.000  O
  O2244      1.0000 0.23362  0.52297  0.89285  Biso   1.000  O
  O2245      1.0000 0.20637  0.51363  0.75703  Biso   1.000  O
  O2246      1.0000 0.19732  0.50000  0.74340  Biso   1.000  O
  O2247      1.0000 0.17242  0.50000  0.74340  Biso   1.000  O
  O2248      1.0000 0.15796  0.48749  0.73089  Biso   1.000  O
  O2249      1.0000 0.13489  0.49194  0.73535  Biso   1.000  O
  O2250      1.0000 0.06341  0.48637  0.72978  Biso   1.000  O
  O2251      1.0000 0.07245  0.50000  0.74340  Biso   1.000  O
  O2252      1.0000 0.09736  0.50000  0.74340  Biso   1.000  O
  O2253      1.0000 0.11182  0.51251  0.75591  Biso   1.000  O
  O2254      1.0000 0.13489  0.50806  0.75146  Biso   1.000  O
  O2255      1.0000 0.15796  0.51251  0.75591  Biso   1.000  O
  O2256      1.0000 0.16263  0.52297  0.76637  Biso   1.000  O
  O2257      1.0000 0.11182  0.48749  0.73089  Biso   1.000  O
  O2258      1.0000 0.10715  0.47703  0.72043  Biso   1.000  O
  O2259      1.0000 0.23362  0.40604  0.72043  Biso   1.000  O
  O2260      1.0000 0.27956  0.35056  0.76637  Biso   1.000  O
  O2261      1.0000 0.24296  0.55023  0.75703  Biso   1.000  O
  O2262      1.0000 0.91922  0.52297  0.72043  Biso   1.000  O
  O2263      1.0000 0.23362  0.52297  0.83737  Biso   1.000  O
  O2264      1.0000 0.27956  0.47703  0.89285  Biso   1.000  O
  O2265      1.0000 0.35056  0.47703  0.76637  Biso   1.000  O
  O2266      1.0000 0.25659  0.55927  0.74340  Biso   1.000  O
  O2267      1.0000 0.25659  0.58417  0.74340  Biso   1.000  O
  O2268      1.0000 0.24408  0.59863  0.75591  Biso   1.000  O
  O2269      1.0000 0.24854  0.13489  0.75146  Biso   1.000  O
  O2270      1.0000 0.26465  0.13489  0.73535  Biso   1.000  O
  O2271      1.0000 0.26910  0.59863  0.73089  Biso   1.000  O
  O2272      1.0000 0.27956  0.59396  0.72043  Biso   1.000  O
  O2273      1.0000 0.25659  0.19732  0.74340  Biso   1.000  O
  O2274      1.0000 0.25659  0.17242  0.74340  Biso   1.000  O
  O2275      1.0000 0.26910  0.15796  0.73089  Biso   1.000  O
  O2276      1.0000 0.27022  0.20637  0.72978  Biso   1.000  O
  O2277      1.0000 0.24408  0.15796  0.75591  Biso   1.000  O
  O2278      1.0000 0.23362  0.16263  0.76637  Biso   1.000  O
  O2279      1.0000 0.27527  0.23791  0.72472  Biso   1.000  O
  O2280      1.0000 0.91922  0.27956  0.96384  Biso   1.000  O
  O2281      1.0000 0.25659  0.25659  0.04608  Biso   1.000  O
  O2282      1.0000 0.25659  0.25659  0.07099  Biso   1.000  O
  O2283      1.0000 0.26910  0.24408  0.08545  Biso   1.000  O
  O2284      1.0000 0.26465  0.24853  0.62170  Biso   1.000  O
  O2285      1.0000 0.24854  0.26465  0.62170  Biso   1.000  O
  O2286      1.0000 0.24408  0.26910  0.08545  Biso   1.000  O
  O2287      1.0000 0.23362  0.27956  0.08078  Biso   1.000  O
  O2288      1.0000 0.35056  0.23362  0.00978  Biso   1.000  O
  O2289      1.0000 0.27956  0.35056  0.96384  Biso   1.000  O
  O2290      1.0000 0.23362  0.40604  0.00978  Biso   1.000  O
  O2291      1.0000 0.27022  0.24296  0.69318  Biso   1.000  O
  O2292      1.0000 0.25659  0.25659  0.68414  Biso   1.000  O
  O2293      1.0000 0.25659  0.25659  0.65923  Biso   1.000  O
  O2294      1.0000 0.24408  0.26910  0.64477  Biso   1.000  O
  O2295      1.0000 0.24296  0.27022  0.69318  Biso   1.000  O
  O2296      1.0000 0.26910  0.24408  0.64477  Biso   1.000  O
  O2297      1.0000 0.27956  0.23362  0.64944  Biso   1.000  O
  O2298      1.0000 0.99021  0.23362  0.08078  Biso   1.000  O
  O2299      1.0000 0.03615  0.27956  0.64944  Biso   1.000  O
  O2300      1.0000 0.95392  0.25659  0.74340  Biso   1.000  O
  O2301      1.0000 0.92901  0.25659  0.74340  Biso   1.000  O
  O2302      1.0000 0.91455  0.26910  0.75591  Biso   1.000  O
  O2303      1.0000 0.89148  0.26465  0.75146  Biso   1.000  O
  O2304      1.0000 0.89148  0.24853  0.73535  Biso   1.000  O
  O2305      1.0000 0.91455  0.24408  0.73089  Biso   1.000  O
  O2306      1.0000 0.91922  0.23362  0.72043  Biso   1.000  O
  O2307      1.0000 0.99021  0.35056  0.76637  Biso   1.000  O
  O2308      1.0000 0.03615  0.40604  0.72043  Biso   1.000  O
  O2309      1.0000 0.31586  0.25659  0.74340  Biso   1.000  O
  O2310      1.0000 0.34076  0.25659  0.74340  Biso   1.000  O
  O2311      1.0000 0.35523  0.24408  0.73089  Biso   1.000  O
  O2312      1.0000 0.30682  0.24296  0.72978  Biso   1.000  O
  O2313      1.0000 0.35523  0.26910  0.75591  Biso   1.000  O
  O2314      1.0000 0.35056  0.27956  0.76637  Biso   1.000  O
  O2315      1.0000 0.23362  0.47703  0.08078  Biso   1.000  O
  O2316      1.0000 0.27956  0.52297  0.64944  Biso   1.000  O
  O2317      1.0000 0.16263  0.47703  0.72043  Biso   1.000  O
  O2318      1.0000 0.10715  0.52297  0.76637  Biso   1.000  O
  O2319      1.0000 0.23362  0.59396  0.76637  Biso   1.000  O
  O2320      1.0000 0.27956  0.16263  0.72043  Biso   1.000  O
  O2321      1.0000 0.27956  0.59396  0.00978  Biso   1.000  O
  O2322      1.0000 0.27956  0.23362  0.08078  Biso   1.000  O
  O2323      1.0000 0.16263  0.27956  0.00978  Biso   1.000  O
  O2324      1.0000 0.10715  0.23362  0.96384  Biso   1.000  O
  O2325      1.0000 0.23362  0.16263  0.96384  Biso   1.000  O
  O2326      1.0000 0.23362  0.27956  0.64944  Biso   1.000  O
  O2327      1.0000 0.03615  0.59396  0.76637  Biso   1.000  O
  O2328      1.0000 0.03615  0.23362  0.83737  Biso   1.000  O
  O2329      1.0000 0.99021  0.27956  0.89285  Biso   1.000  O
  O2330      1.0000 0.91922  0.27956  0.76637  Biso   1.000  O
  O2331      1.0000 0.99021  0.16263  0.72043  Biso   1.000  O
  O2332      1.0000 0.35056  0.23362  0.72043  Biso   1.000  O
  O2333      1.0000 0.01318  0.50000  0.04608  Biso   1.000  O
  O2334      1.0000 0.01318  0.50000  0.07099  Biso   1.000  O
  O2335      1.0000 0.02569  0.48749  0.08545  Biso   1.000  O
  O2336      1.0000 0.02124  0.49194  0.62170  Biso   1.000  O
  O2337      1.0000 0.00513  0.50806  0.62170  Biso   1.000  O
  O2338      1.0000 0.00067  0.51251  0.08545  Biso   1.000  O
  O2339      1.0000 0.99021  0.52297  0.08078  Biso   1.000  O
  O2340      1.0000 0.10715  0.47703  0.00978  Biso   1.000  O
  O2341      1.0000 0.16263  0.52297  0.96384  Biso   1.000  O
  O2342      1.0000 0.03615  0.59396  0.96384  Biso   1.000  O
  O2343      1.0000 0.02681  0.48637  0.69318  Biso   1.000  O
  O2344      1.0000 0.01318  0.50000  0.68414  Biso   1.000  O
  O2345      1.0000 0.01318  0.50000  0.65923  Biso   1.000  O
  O2346      1.0000 0.00067  0.51251  0.64477  Biso   1.000  O
  O2347      1.0000 0.99956  0.51363  0.69318  Biso   1.000  O
  O2348      1.0000 0.02569  0.48749  0.64477  Biso   1.000  O
  O2349      1.0000 0.03615  0.47703  0.64944  Biso   1.000  O
  O2350      1.0000 0.99021  0.16263  0.00978  Biso   1.000  O
  O2351      1.0000 0.03615  0.47703  0.08078  Biso   1.000  O
  O2352      1.0000 0.91922  0.52297  0.00978  Biso   1.000  O
  O2353      1.0000 0.99021  0.40604  0.96384  Biso   1.000  O
  O2354      1.0000 0.03615  0.35056  0.00978  Biso   1.000  O
  O2355      1.0000 0.35056  0.47703  0.96384  Biso   1.000  O
  O2356      1.0000 0.48132  0.48132  0.96813  Biso   1.000  O
  O2357      1.0000 0.50000  0.50000  0.98681  Biso   1.000  O
  O2358      1.0000 0.48637  0.48637  0.93659  Biso   1.000  O
  O2359      1.0000 0.50000  0.50000  0.92755  Biso   1.000  O
  O2360      1.0000 0.50000  0.50000  0.90264  Biso   1.000  O
  O2361      1.0000 0.51251  0.51251  0.88818  Biso   1.000  O
  O2362      1.0000 0.50806  0.50806  0.86511  Biso   1.000  O
  O2363      1.0000 0.51363  0.51363  0.79363  Biso   1.000  O
  O2364      1.0000 0.50000  0.50000  0.80267  Biso   1.000  O
  O2365      1.0000 0.50000  0.50000  0.82758  Biso   1.000  O
  O2366      1.0000 0.48749  0.48749  0.84204  Biso   1.000  O
  O2367      1.0000 0.49194  0.49194  0.86511  Biso   1.000  O
  O2368      1.0000 0.51363  0.51363  0.93659  Biso   1.000  O
  O2369      1.0000 0.48749  0.48749  0.88818  Biso   1.000  O
  O2370      1.0000 0.47703  0.47703  0.89285  Biso   1.000  O
  O2371      1.0000 0.48637  0.48637  0.79363  Biso   1.000  O
  O2372      1.0000 0.51251  0.51251  0.84204  Biso   1.000  O
  O2373      1.0000 0.52297  0.52297  0.83737  Biso   1.000  O
  O2374      1.0000 0.51868  0.51868  0.96813  Biso   1.000  O
  O2375      1.0000 0.55023  0.51363  0.97318  Biso   1.000  O
  O2376      1.0000 0.55927  0.50000  0.98681  Biso   1.000  O
  O2377      1.0000 0.58417  0.50000  0.98681  Biso   1.000  O
  O2378      1.0000 0.59864  0.48749  0.99932  Biso   1.000  O
  O2379      1.0000 0.62171  0.49194  0.99487  Biso   1.000  O
  O2380      1.0000 0.69318  0.48637  0.00044  Biso   1.000  O
  O2381      1.0000 0.68414  0.50000  0.98681  Biso   1.000  O
  O2382      1.0000 0.65924  0.50000  0.98681  Biso   1.000  O
  O2383      1.0000 0.64478  0.51251  0.97430  Biso   1.000  O
  O2384      1.0000 0.62171  0.50806  0.97876  Biso   1.000  O
  O2385      1.0000 0.55023  0.48637  0.00044  Biso   1.000  O
  O2386      1.0000 0.59864  0.51251  0.97430  Biso   1.000  O
  O2387      1.0000 0.59396  0.52297  0.96384  Biso   1.000  O
  O2388      1.0000 0.69318  0.51363  0.97318  Biso   1.000  O
  O2389      1.0000 0.64478  0.48749  0.99932  Biso   1.000  O
  O2390      1.0000 0.64945  0.47703  0.00978  Biso   1.000  O
  O2391      1.0000 0.51868  0.48132  0.00550  Biso   1.000  O
  O2392      1.0000 0.51363  0.44977  0.00044  Biso   1.000  O
  O2393      1.0000 0.50000  0.44073  0.98681  Biso   1.000  O
  O2394      1.0000 0.50000  0.41583  0.98681  Biso   1.000  O
  O2395      1.0000 0.48749  0.40137  0.97430  Biso   1.000  O
  O2396      1.0000 0.49194  0.37830  0.97876  Biso   1.000  O
  O2397      1.0000 0.48637  0.30682  0.97318  Biso   1.000  O
  O2398      1.0000 0.50000  0.31586  0.98681  Biso   1.000  O
  O2399      1.0000 0.50000  0.34076  0.98681  Biso   1.000  O
  O2400      1.0000 0.51251  0.35523  0.99932  Biso   1.000  O
  O2401      1.0000 0.50806  0.37830  0.99487  Biso   1.000  O
  O2402      1.0000 0.48637  0.44977  0.97318  Biso   1.000  O
  O2403      1.0000 0.51251  0.40137  0.99932  Biso   1.000  O
  O2404      1.0000 0.52297  0.40604  0.00978  Biso   1.000  O
  O2405      1.0000 0.51363  0.30682  0.00044  Biso   1.000  O
  O2406      1.0000 0.48749  0.35523  0.97430  Biso   1.000  O
  O2407      1.0000 0.47703  0.35056  0.96384  Biso   1.000  O
  O2408      1.0000 0.48132  0.48132  0.76209  Biso   1.000  O
  O2409      1.0000 0.48132  0.27527  0.96813  Biso   1.000  O
  O2410      1.0000 0.72473  0.48132  0.00550  Biso   1.000  O
  O2411      1.0000 0.51868  0.27527  0.00550  Biso   1.000  O
  O2412      1.0000 0.72473  0.51868  0.96813  Biso   1.000  O
  O2413      1.0000 0.51868  0.51868  0.76209  Biso   1.000  O
  O2414      1.0000 0.48132  0.51868  0.00550  Biso   1.000  O
  O2415      1.0000 0.50000  0.50000  0.74340  Biso   1.000  O
  O2416      1.0000 0.48637  0.44977  0.75703  Biso   1.000  O
  O2417      1.0000 0.51363  0.48637  0.03704  Biso   1.000  O
  O2418      1.0000 0.44977  0.48637  0.75703  Biso   1.000  O
  O2419      1.0000 0.44977  0.48637  0.97318  Biso   1.000  O
  O2420      1.0000 0.51363  0.55023  0.97318  Biso   1.000  O
  O2421      1.0000 0.75147  0.50806  0.62170  Biso   1.000  O
  O2422      1.0000 0.75704  0.51363  0.03704  Biso   1.000  O
  O2423      1.0000 0.74341  0.50000  0.04608  Biso   1.000  O
  O2424      1.0000 0.74341  0.50000  0.07099  Biso   1.000  O
  O2425      1.0000 0.73090  0.48749  0.08545  Biso   1.000  O
  O2426      1.0000 0.73535  0.49194  0.62170  Biso   1.000  O
  O2427      1.0000 0.72978  0.48637  0.03704  Biso   1.000  O
  O2428      1.0000 0.75592  0.51251  0.08545  Biso   1.000  O
  O2429      1.0000 0.76638  0.52297  0.08078  Biso   1.000  O
  O2430      1.0000 0.76209  0.51868  0.00550  Biso   1.000  O
  O2431      1.0000 0.74341  0.50000  0.98681  Biso   1.000  O
  O2432      1.0000 0.72978  0.44977  0.00044  Biso   1.000  O
  O2433      1.0000 0.37830  0.49194  0.75146  Biso   1.000  O
  O2434      1.0000 0.44073  0.50000  0.74340  Biso   1.000  O
  O2435      1.0000 0.41583  0.50000  0.74340  Biso   1.000  O
  O2436      1.0000 0.40137  0.51251  0.73089  Biso   1.000  O
  O2437      1.0000 0.37830  0.50806  0.73535  Biso   1.000  O
  O2438      1.0000 0.44977  0.51363  0.72978  Biso   1.000  O
  O2439      1.0000 0.40137  0.48749  0.75591  Biso   1.000  O
  O2440      1.0000 0.40604  0.47703  0.76637  Biso   1.000  O
  O2441      1.0000 0.48132  0.51868  0.72472  Biso   1.000  O
  O2442      1.0000 0.72473  0.48132  0.72472  Biso   1.000  O
  O2443      1.0000 0.74341  0.50000  0.74340  Biso   1.000  O
  O2444      1.0000 0.72978  0.48637  0.69318  Biso   1.000  O
  O2445      1.0000 0.74341  0.50000  0.68414  Biso   1.000  O
  O2446      1.0000 0.74341  0.50000  0.65923  Biso   1.000  O
  O2447      1.0000 0.75592  0.51251  0.64477  Biso   1.000  O
  O2448      1.0000 0.75704  0.51363  0.69318  Biso   1.000  O
  O2449      1.0000 0.73090  0.48749  0.64477  Biso   1.000  O
  O2450      1.0000 0.72044  0.47703  0.64944  Biso   1.000  O
  O2451      1.0000 0.76209  0.51868  0.72472  Biso   1.000  O
  O2452      1.0000 0.79364  0.51363  0.72978  Biso   1.000  O
  O2453      1.0000 0.80268  0.50000  0.74340  Biso   1.000  O
  O2454      1.0000 0.82758  0.50000  0.74340  Biso   1.000  O
  O2455      1.0000 0.84204  0.48749  0.75591  Biso   1.000  O
  O2456      1.0000 0.79364  0.48637  0.75703  Biso   1.000  O
  O2457      1.0000 0.84204  0.51251  0.73089  Biso   1.000  O
  O2458      1.0000 0.83737  0.52297  0.72043  Biso   1.000  O
  O2459      1.0000 0.76209  0.48132  0.76209  Biso   1.000  O
  O2460      1.0000 0.75704  0.44977  0.75703  Biso   1.000  O
  O2461      1.0000 0.74341  0.44073  0.74340  Biso   1.000  O
  O2462      1.0000 0.74341  0.41583  0.74340  Biso   1.000  O
  O2463      1.0000 0.73090  0.40137  0.73089  Biso   1.000  O
  O2464      1.0000 0.73535  0.37830  0.73535  Biso   1.000  O
  O2465      1.0000 0.72978  0.30682  0.72978  Biso   1.000  O
  O2466      1.0000 0.74341  0.31586  0.74340  Biso   1.000  O
  O2467      1.0000 0.74341  0.34076  0.74340  Biso   1.000  O
  O2468      1.0000 0.75592  0.35523  0.75591  Biso   1.000  O
  O2469      1.0000 0.75147  0.37830  0.75146  Biso   1.000  O
  O2470      1.0000 0.72978  0.44977  0.72978  Biso   1.000  O
  O2471      1.0000 0.75592  0.40137  0.75591  Biso   1.000  O
  O2472      1.0000 0.76638  0.40604  0.76637  Biso   1.000  O
  O2473      1.0000 0.75704  0.30682  0.75703  Biso   1.000  O
  O2474      1.0000 0.73090  0.35523  0.73089  Biso   1.000  O
  O2475      1.0000 0.72044  0.35056  0.72043  Biso   1.000  O
  O2476      1.0000 0.72473  0.27527  0.72472  Biso   1.000  O
  O2477      1.0000 0.76209  0.27527  0.76209  Biso   1.000  O
  O2478      1.0000 0.72473  0.51868  0.76209  Biso   1.000  O
  O2479      1.0000 0.75704  0.48637  0.79363  Biso   1.000  O
  O2480      1.0000 0.69318  0.48637  0.72978  Biso   1.000  O
  O2481      1.0000 0.75704  0.55023  0.72978  Biso   1.000  O
  O2482      1.0000 0.73535  0.13489  0.97876  Biso   1.000  O
  O2483      1.0000 0.72978  0.55023  0.97318  Biso   1.000  O
  O2484      1.0000 0.74341  0.55927  0.98681  Biso   1.000  O
  O2485      1.0000 0.74341  0.58417  0.98681  Biso   1.000  O
  O2486      1.0000 0.75592  0.59863  0.99932  Biso   1.000  O
  O2487      1.0000 0.75147  0.13489  0.99487  Biso   1.000  O
  O2488      1.0000 0.75704  0.55023  0.00044  Biso   1.000  O
  O2489      1.0000 0.73090  0.59863  0.97430  Biso   1.000  O
  O2490      1.0000 0.72044  0.59396  0.96384  Biso   1.000  O
  O2491      1.0000 0.37830  0.24853  0.99487  Biso   1.000  O
  O2492      1.0000 0.44977  0.24296  0.00044  Biso   1.000  O
  O2493      1.0000 0.44073  0.25659  0.98681  Biso   1.000  O
  O2494      1.0000 0.41583  0.25659  0.98681  Biso   1.000  O
  O2495      1.0000 0.40137  0.26910  0.97430  Biso   1.000  O
  O2496      1.0000 0.37830  0.26465  0.97876  Biso   1.000  O
  O2497      1.0000 0.44977  0.27022  0.97318  Biso   1.000  O
  O2498      1.0000 0.40137  0.24408  0.99932  Biso   1.000  O
  O2499      1.0000 0.40604  0.23362  0.00978  Biso   1.000  O
  O2500      1.0000 0.48132  0.23791  0.00550  Biso   1.000  O
  O2501      1.0000 0.72473  0.23791  0.96813  Biso   1.000  O
  O2502      1.0000 0.74341  0.25659  0.98681  Biso   1.000  O
  O2503      1.0000 0.72978  0.24296  0.93659  Biso   1.000  O
  O2504      1.0000 0.74341  0.25659  0.92755  Biso   1.000  O
  O2505      1.0000 0.74341  0.25659  0.90264  Biso   1.000  O
  O2506      1.0000 0.75592  0.26910  0.88818  Biso   1.000  O
  O2507      1.0000 0.75147  0.26465  0.86511  Biso   1.000  O
  O2508      1.0000 0.75704  0.27022  0.79363  Biso   1.000  O
  O2509      1.0000 0.74341  0.25659  0.80267  Biso   1.000  O
  O2510      1.0000 0.74341  0.25659  0.82758  Biso   1.000  O
  O2511      1.0000 0.73090  0.24408  0.84204  Biso   1.000  O
  O2512      1.0000 0.73535  0.24853  0.86511  Biso   1.000  O
  O2513      1.0000 0.75704  0.27022  0.93659  Biso   1.000  O
  O2514      1.0000 0.73090  0.24408  0.88818  Biso   1.000  O
  O2515      1.0000 0.72044  0.23362  0.89285  Biso   1.000  O
  O2516      1.0000 0.72978  0.24296  0.79363  Biso   1.000  O
  O2517      1.0000 0.75592  0.26910  0.84204  Biso   1.000  O
  O2518      1.0000 0.76638  0.27956  0.83737  Biso   1.000  O
  O2519      1.0000 0.76209  0.27527  0.96813  Biso   1.000  O
  O2520      1.0000 0.79364  0.27022  0.97318  Biso   1.000  O
  O2521      1.0000 0.80268  0.25659  0.98681  Biso   1.000  O
  O2522      1.0000 0.82758  0.25659  0.98681  Biso   1.000  O
  O2523      1.0000 0.84204  0.24408  0.99932  Biso   1.000  O
  O2524      1.0000 0.79364  0.24296  0.00044  Biso   1.000  O
  O2525      1.0000 0.84204  0.26910  0.97430  Biso   1.000  O
  O2526      1.0000 0.83737  0.27956  0.96384  Biso   1.000  O
  O2527      1.0000 0.76209  0.23791  0.00550  Biso   1.000  O
  O2528      1.0000 0.75704  0.20637  0.00044  Biso   1.000  O
  O2529      1.0000 0.74341  0.19732  0.98681  Biso   1.000  O
  O2530      1.0000 0.74341  0.17242  0.98681  Biso   1.000  O
  O2531      1.0000 0.73090  0.15796  0.97430  Biso   1.000  O
  O2532      1.0000 0.72978  0.20637  0.97318  Biso   1.000  O
  O2533      1.0000 0.75592  0.15796  0.99932  Biso   1.000  O
  O2534      1.0000 0.76638  0.16263  0.00978  Biso   1.000  O
  O2535      1.0000 0.72473  0.23791  0.76209  Biso   1.000  O
  O2536      1.0000 0.72473  0.27527  0.00550  Biso   1.000  O
  O2537      1.0000 0.74341  0.25659  0.74340  Biso   1.000  O
  O2538      1.0000 0.72978  0.20637  0.75703  Biso   1.000  O
  O2539      1.0000 0.75704  0.24296  0.03704  Biso   1.000  O
  O2540      1.0000 0.69318  0.24296  0.75703  Biso   1.000  O
  O2541      1.0000 0.69318  0.24296  0.97318  Biso   1.000  O
  O2542      1.0000 0.75704  0.30682  0.97318  Biso   1.000  O
  O2543      1.0000 0.49194  0.13489  0.73535  Biso   1.000  O
  O2544      1.0000 0.48637  0.55023  0.72978  Biso   1.000  O
  O2545      1.0000 0.50000  0.55927  0.74340  Biso   1.000  O
  O2546      1.0000 0.50000  0.58417  0.74340  Biso   1.000  O
  O2547      1.0000 0.51251  0.59863  0.75591  Biso   1.000  O
  O2548      1.0000 0.50806  0.13489  0.75146  Biso   1.000  O
  O2549      1.0000 0.51363  0.55023  0.75703  Biso   1.000  O
  O2550      1.0000 0.48749  0.59863  0.73089  Biso   1.000  O
  O2551      1.0000 0.47703  0.59396  0.72043  Biso   1.000  O
  O2552      1.0000 0.50806  0.26465  0.62170  Biso   1.000  O
  O2553      1.0000 0.51363  0.27022  0.03704  Biso   1.000  O
  O2554      1.0000 0.50000  0.25659  0.04608  Biso   1.000  O
  O2555      1.0000 0.50000  0.25659  0.07099  Biso   1.000  O
  O2556      1.0000 0.48749  0.24408  0.08545  Biso   1.000  O
  O2557      1.0000 0.49194  0.24853  0.62170  Biso   1.000  O
  O2558      1.0000 0.48637  0.24296  0.03704  Biso   1.000  O
  O2559      1.0000 0.51251  0.26910  0.08545  Biso   1.000  O
  O2560      1.0000 0.52297  0.27956  0.08078  Biso   1.000  O
  O2561      1.0000 0.50000  0.25659  0.98681  Biso   1.000  O
  O2562      1.0000 0.48637  0.20637  0.00044  Biso   1.000  O
  O2563      1.0000 0.48132  0.23791  0.72472  Biso   1.000  O
  O2564      1.0000 0.50000  0.25659  0.74340  Biso   1.000  O
  O2565      1.0000 0.48637  0.24296  0.69318  Biso   1.000  O
  O2566      1.0000 0.50000  0.25659  0.68414  Biso   1.000  O
  O2567      1.0000 0.50000  0.25659  0.65923  Biso   1.000  O
  O2568      1.0000 0.51251  0.26910  0.64477  Biso   1.000  O
  O2569      1.0000 0.51363  0.27022  0.69318  Biso   1.000  O
  O2570      1.0000 0.48749  0.24408  0.64477  Biso   1.000  O
  O2571      1.0000 0.47703  0.23362  0.64944  Biso   1.000  O
  O2572      1.0000 0.51868  0.27527  0.72472  Biso   1.000  O
  O2573      1.0000 0.55023  0.27022  0.72978  Biso   1.000  O
  O2574      1.0000 0.55927  0.25659  0.74340  Biso   1.000  O
  O2575      1.0000 0.58417  0.25659  0.74340  Biso   1.000  O
  O2576      1.0000 0.59864  0.24408  0.75591  Biso   1.000  O
  O2577      1.0000 0.62171  0.24853  0.75146  Biso   1.000  O
  O2578      1.0000 0.68414  0.25659  0.74340  Biso   1.000  O
  O2579      1.0000 0.65924  0.25659  0.74340  Biso   1.000  O
  O2580      1.0000 0.64478  0.26910  0.73089  Biso   1.000  O
  O2581      1.0000 0.62171  0.26465  0.73535  Biso   1.000  O
  O2582      1.0000 0.55023  0.24296  0.75703  Biso   1.000  O
  O2583      1.0000 0.59864  0.26910  0.73089  Biso   1.000  O
  O2584      1.0000 0.59396  0.27956  0.72043  Biso   1.000  O
  O2585      1.0000 0.69318  0.27022  0.72978  Biso   1.000  O
  O2586      1.0000 0.64478  0.24408  0.75591  Biso   1.000  O
  O2587      1.0000 0.64945  0.23362  0.76637  Biso   1.000  O
  O2588      1.0000 0.51868  0.23791  0.76209  Biso   1.000  O
  O2589      1.0000 0.51363  0.20637  0.75703  Biso   1.000  O
  O2590      1.0000 0.50000  0.19732  0.74340  Biso   1.000  O
  O2591      1.0000 0.50000  0.17242  0.74340  Biso   1.000  O
  O2592      1.0000 0.48749  0.15796  0.73089  Biso   1.000  O
  O2593      1.0000 0.48637  0.20637  0.72978  Biso   1.000  O
  O2594      1.0000 0.51251  0.15796  0.75591  Biso   1.000  O
  O2595      1.0000 0.52297  0.16263  0.76637  Biso   1.000  O
  O2596      1.0000 0.48132  0.27527  0.76209  Biso   1.000  O
  O2597      1.0000 0.51363  0.24296  0.79363  Biso   1.000  O
  O2598      1.0000 0.44977  0.24296  0.72978  Biso   1.000  O
  O2599      1.0000 0.51363  0.30682  0.72978  Biso   1.000  O
  O2600      1.0000 0.76638  0.27956  0.89285  Biso   1.000  O
  O2601      1.0000 0.72044  0.23362  0.83737  Biso   1.000  O
  O2602      1.0000 0.68414  0.25659  0.98681  Biso   1.000  O
  O2603      1.0000 0.65924  0.25659  0.98681  Biso   1.000  O
  O2604      1.0000 0.64478  0.26910  0.99932  Biso   1.000  O
  O2605      1.0000 0.62171  0.26465  0.99487  Biso   1.000  O
  O2606      1.0000 0.55023  0.27022  0.00044  Biso   1.000  O
  O2607      1.0000 0.55927  0.25659  0.98681  Biso   1.000  O
  O2608      1.0000 0.58417  0.25659  0.98681  Biso   1.000  O
  O2609      1.0000 0.59864  0.24408  0.97430  Biso   1.000  O
  O2610      1.0000 0.62171  0.24853  0.97876  Biso   1.000  O
  O2611      1.0000 0.69318  0.27022  0.00044  Biso   1.000  O
  O2612      1.0000 0.64478  0.24408  0.97430  Biso   1.000  O
  O2613      1.0000 0.64945  0.23362  0.96384  Biso   1.000  O
  O2614      1.0000 0.55023  0.24296  0.97318  Biso   1.000  O
  O2615      1.0000 0.59864  0.26910  0.99932  Biso   1.000  O
  O2616      1.0000 0.59396  0.27956  0.00978  Biso   1.000  O
  O2617      1.0000 0.72978  0.30682  0.00044  Biso   1.000  O
  O2618      1.0000 0.74341  0.31586  0.98681  Biso   1.000  O
  O2619      1.0000 0.74341  0.34076  0.98681  Biso   1.000  O
  O2620      1.0000 0.75592  0.35523  0.97430  Biso   1.000  O
  O2621      1.0000 0.75147  0.37830  0.97876  Biso   1.000  O
  O2622      1.0000 0.75704  0.44977  0.97318  Biso   1.000  O
  O2623      1.0000 0.74341  0.44073  0.98681  Biso   1.000  O
  O2624      1.0000 0.74341  0.41583  0.98681  Biso   1.000  O
  O2625      1.0000 0.73090  0.40137  0.99932  Biso   1.000  O
  O2626      1.0000 0.73535  0.37830  0.99487  Biso   1.000  O
  O2627      1.0000 0.73090  0.35523  0.99932  Biso   1.000  O
  O2628      1.0000 0.72044  0.35056  0.00978  Biso   1.000  O
  O2629      1.0000 0.75592  0.40137  0.97430  Biso   1.000  O
  O2630      1.0000 0.76638  0.40604  0.96384  Biso   1.000  O
  O2631      1.0000 0.76209  0.48132  0.96813  Biso   1.000  O
  O2632      1.0000 0.51868  0.23791  0.96813  Biso   1.000  O
  O2633      1.0000 0.72978  0.27022  0.03704  Biso   1.000  O
  O2634      1.0000 0.79364  0.27022  0.75703  Biso   1.000  O
  O2635      1.0000 0.48637  0.27022  0.79363  Biso   1.000  O
  O2636      1.0000 0.50000  0.25659  0.80267  Biso   1.000  O
  O2637      1.0000 0.50000  0.25659  0.82758  Biso   1.000  O
  O2638      1.0000 0.51251  0.24408  0.84204  Biso   1.000  O
  O2639      1.0000 0.50806  0.24853  0.86511  Biso   1.000  O
  O2640      1.0000 0.51363  0.24296  0.93659  Biso   1.000  O
  O2641      1.0000 0.50000  0.25659  0.92755  Biso   1.000  O
  O2642      1.0000 0.50000  0.25659  0.90264  Biso   1.000  O
  O2643      1.0000 0.48749  0.26910  0.88818  Biso   1.000  O
  O2644      1.0000 0.49194  0.26465  0.86511  Biso   1.000  O
  O2645      1.0000 0.48749  0.26910  0.84204  Biso   1.000  O
  O2646      1.0000 0.47703  0.27956  0.83737  Biso   1.000  O
  O2647      1.0000 0.48637  0.27022  0.93659  Biso   1.000  O
  O2648      1.0000 0.51251  0.24408  0.88818  Biso   1.000  O
  O2649      1.0000 0.52297  0.23362  0.89285  Biso   1.000  O
  O2650      1.0000 0.59396  0.23362  0.76637  Biso   1.000  O
  O2651      1.0000 0.64945  0.27956  0.72043  Biso   1.000  O
  O2652      1.0000 0.50000  0.31586  0.74340  Biso   1.000  O
  O2653      1.0000 0.50000  0.34076  0.74340  Biso   1.000  O
  O2654      1.0000 0.48749  0.35523  0.75591  Biso   1.000  O
  O2655      1.0000 0.49194  0.37830  0.75146  Biso   1.000  O
  O2656      1.0000 0.50000  0.44073  0.74340  Biso   1.000  O
  O2657      1.0000 0.50000  0.41583  0.74340  Biso   1.000  O
  O2658      1.0000 0.51251  0.40137  0.73089  Biso   1.000  O
  O2659      1.0000 0.50806  0.37830  0.73535  Biso   1.000  O
  O2660      1.0000 0.48637  0.30682  0.75703  Biso   1.000  O
  O2661      1.0000 0.51251  0.35523  0.73089  Biso   1.000  O
  O2662      1.0000 0.52297  0.35056  0.72043  Biso   1.000  O
  O2663      1.0000 0.51363  0.44977  0.72978  Biso   1.000  O
  O2664      1.0000 0.48749  0.40137  0.75591  Biso   1.000  O
  O2665      1.0000 0.47703  0.40604  0.76637  Biso   1.000  O
  O2666      1.0000 0.51868  0.48132  0.72472  Biso   1.000  O
  O2667      1.0000 0.44977  0.27022  0.75703  Biso   1.000  O
  O2668      1.0000 0.52297  0.52297  0.89285  Biso   1.000  O
  O2669      1.0000 0.47703  0.47703  0.83737  Biso   1.000  O
  O2670      1.0000 0.44073  0.50000  0.98681  Biso   1.000  O
  O2671      1.0000 0.41583  0.50000  0.98681  Biso   1.000  O
  O2672      1.0000 0.40137  0.51251  0.99932  Biso   1.000  O
  O2673      1.0000 0.37830  0.50806  0.99487  Biso   1.000  O
  O2674      1.0000 0.37830  0.49194  0.97876  Biso   1.000  O
  O2675      1.0000 0.44977  0.51363  0.00044  Biso   1.000  O
  O2676      1.0000 0.40137  0.48749  0.97430  Biso   1.000  O
  O2677      1.0000 0.40604  0.47703  0.96384  Biso   1.000  O
  O2678      1.0000 0.48637  0.55023  0.00044  Biso   1.000  O
  O2679      1.0000 0.50000  0.55927  0.98681  Biso   1.000  O
  O2680      1.0000 0.50000  0.58417  0.98681  Biso   1.000  O
  O2681      1.0000 0.51251  0.59863  0.97430  Biso   1.000  O
  O2682      1.0000 0.50806  0.13489  0.97876  Biso   1.000  O
  O2683      1.0000 0.49194  0.13489  0.99487  Biso   1.000  O
  O2684      1.0000 0.48749  0.59863  0.99932  Biso   1.000  O
  O2685      1.0000 0.47703  0.59396  0.00978  Biso   1.000  O
  O2686      1.0000 0.48637  0.51363  0.03704  Biso   1.000  O
  O2687      1.0000 0.55023  0.51363  0.75703  Biso   1.000  O
  O2688      1.0000 0.79364  0.51363  0.00044  Biso   1.000  O
  O2689      1.0000 0.80268  0.50000  0.98681  Biso   1.000  O
  O2690      1.0000 0.82758  0.50000  0.98681  Biso   1.000  O
  O2691      1.0000 0.84204  0.48749  0.97430  Biso   1.000  O
  O2692      1.0000 0.79364  0.48637  0.97318  Biso   1.000  O
  O2693      1.0000 0.84204  0.51251  0.99932  Biso   1.000  O
  O2694      1.0000 0.83737  0.52297  0.00978  Biso   1.000  O
  O2695      1.0000 0.51363  0.20637  0.97318  Biso   1.000  O
  O2696      1.0000 0.50000  0.19732  0.98681  Biso   1.000  O
  O2697      1.0000 0.50000  0.17242  0.98681  Biso   1.000  O
  O2698      1.0000 0.48749  0.15796  0.99932  Biso   1.000  O
  O2699      1.0000 0.51251  0.15796  0.97430  Biso   1.000  O
  O2700      1.0000 0.52297  0.16263  0.96384  Biso   1.000  O
  O2701      1.0000 0.74341  0.50000  0.80267  Biso   1.000  O
  O2702      1.0000 0.74341  0.50000  0.82758  Biso   1.000  O
  O2703      1.0000 0.73090  0.51251  0.84204  Biso   1.000  O
  O2704      1.0000 0.73535  0.50806  0.86511  Biso   1.000  O
  O2705      1.0000 0.72978  0.51363  0.93659  Biso   1.000  O
  O2706      1.0000 0.74341  0.50000  0.92755  Biso   1.000  O
  O2707      1.0000 0.74341  0.50000  0.90264  Biso   1.000  O
  O2708      1.0000 0.75592  0.48749  0.88818  Biso   1.000  O
  O2709      1.0000 0.75147  0.49194  0.86511  Biso   1.000  O
  O2710      1.0000 0.72978  0.51363  0.79363  Biso   1.000  O
  O2711      1.0000 0.75592  0.48749  0.84204  Biso   1.000  O
  O2712      1.0000 0.76638  0.47703  0.83737  Biso   1.000  O
  O2713      1.0000 0.75704  0.48637  0.93659  Biso   1.000  O
  O2714      1.0000 0.73090  0.51251  0.88818  Biso   1.000  O
  O2715      1.0000 0.72044  0.52297  0.89285  Biso   1.000  O
  O2716      1.0000 0.69318  0.51363  0.75703  Biso   1.000  O
  O2717      1.0000 0.68414  0.50000  0.74340  Biso   1.000  O
  O2718      1.0000 0.65924  0.50000  0.74340  Biso   1.000  O
  O2719      1.0000 0.64478  0.48749  0.73089  Biso   1.000  O
  O2720      1.0000 0.62171  0.49194  0.73535  Biso   1.000  O
  O2721      1.0000 0.55023  0.48637  0.72978  Biso   1.000  O
  O2722      1.0000 0.55927  0.50000  0.74340  Biso   1.000  O
  O2723      1.0000 0.58417  0.50000  0.74340  Biso   1.000  O
  O2724      1.0000 0.59864  0.51251  0.75591  Biso   1.000  O
  O2725      1.0000 0.62171  0.50806  0.75146  Biso   1.000  O
  O2726      1.0000 0.64478  0.51251  0.75591  Biso   1.000  O
  O2727      1.0000 0.64945  0.52297  0.76637  Biso   1.000  O
  O2728      1.0000 0.59864  0.48749  0.73089  Biso   1.000  O
  O2729      1.0000 0.59397  0.47703  0.72043  Biso   1.000  O
  O2730      1.0000 0.72044  0.40604  0.72043  Biso   1.000  O
  O2731      1.0000 0.76638  0.35056  0.76637  Biso   1.000  O
  O2732      1.0000 0.72978  0.55023  0.75703  Biso   1.000  O
  O2733      1.0000 0.40604  0.52297  0.72043  Biso   1.000  O
  O2734      1.0000 0.72044  0.52297  0.83737  Biso   1.000  O
  O2735      1.0000 0.76638  0.47703  0.89285  Biso   1.000  O
  O2736      1.0000 0.83737  0.47703  0.76637  Biso   1.000  O
  O2737      1.0000 0.74341  0.55927  0.74340  Biso   1.000  O
  O2738      1.0000 0.74341  0.58417  0.74340  Biso   1.000  O
  O2739      1.0000 0.73090  0.59863  0.75591  Biso   1.000  O
  O2740      1.0000 0.73535  0.13489  0.75146  Biso   1.000  O
  O2741      1.0000 0.75147  0.13489  0.73535  Biso   1.000  O
  O2742      1.0000 0.75592  0.59863  0.73089  Biso   1.000  O
  O2743      1.0000 0.76638  0.59396  0.72043  Biso   1.000  O
  O2744      1.0000 0.74341  0.19732  0.74340  Biso   1.000  O
  O2745      1.0000 0.74341  0.17242  0.74340  Biso   1.000  O
  O2746      1.0000 0.75592  0.15796  0.73089  Biso   1.000  O
  O2747      1.0000 0.75704  0.20637  0.72978  Biso   1.000  O
  O2748      1.0000 0.73090  0.15796  0.75591  Biso   1.000  O
  O2749      1.0000 0.72044  0.16263  0.76637  Biso   1.000  O
  O2750      1.0000 0.76209  0.23791  0.72472  Biso   1.000  O
  O2751      1.0000 0.40604  0.27956  0.96384  Biso   1.000  O
  O2752      1.0000 0.74341  0.25659  0.04608  Biso   1.000  O
  O2753      1.0000 0.74341  0.25659  0.07099  Biso   1.000  O
  O2754      1.0000 0.75592  0.24408  0.08545  Biso   1.000  O
  O2755      1.0000 0.75147  0.24853  0.62170  Biso   1.000  O
  O2756      1.0000 0.73535  0.26465  0.62170  Biso   1.000  O
  O2757      1.0000 0.73090  0.26910  0.08545  Biso   1.000  O
  O2758      1.0000 0.72044  0.27956  0.08078  Biso   1.000  O
  O2759      1.0000 0.83737  0.23362  0.00978  Biso   1.000  O
  O2760      1.0000 0.76638  0.35056  0.96384  Biso   1.000  O
  O2761      1.0000 0.72044  0.40604  0.00978  Biso   1.000  O
  O2762      1.0000 0.75704  0.24296  0.69318  Biso   1.000  O
  O2763      1.0000 0.74341  0.25659  0.68414  Biso   1.000  O
  O2764      1.0000 0.74341  0.25659  0.65923  Biso   1.000  O
  O2765      1.0000 0.73090  0.26910  0.64477  Biso   1.000  O
  O2766      1.0000 0.72978  0.27022  0.69318  Biso   1.000  O
  O2767      1.0000 0.75592  0.24408  0.64477  Biso   1.000  O
  O2768      1.0000 0.76638  0.23362  0.64944  Biso   1.000  O
  O2769      1.0000 0.47703  0.23362  0.08078  Biso   1.000  O
  O2770      1.0000 0.52297  0.27956  0.64944  Biso   1.000  O
  O2771      1.0000 0.44073  0.25659  0.74340  Biso   1.000  O
  O2772      1.0000 0.41583  0.25659  0.74340  Biso   1.000  O
  O2773      1.0000 0.40137  0.26910  0.75591  Biso   1.000  O
  O2774      1.0000 0.37830  0.26465  0.75146  Biso   1.000  O
  O2775      1.0000 0.37830  0.24853  0.73535  Biso   1.000  O
  O2776      1.0000 0.40137  0.24408  0.73089  Biso   1.000  O
  O2777      1.0000 0.40604  0.23362  0.72043  Biso   1.000  O
  O2778      1.0000 0.47703  0.35056  0.76637  Biso   1.000  O
  O2779      1.0000 0.52297  0.40604  0.72043  Biso   1.000  O
  O2780      1.0000 0.80268  0.25659  0.74340  Biso   1.000  O
  O2781      1.0000 0.82758  0.25659  0.74340  Biso   1.000  O
  O2782      1.0000 0.84204  0.24408  0.73089  Biso   1.000  O
  O2783      1.0000 0.79364  0.24296  0.72978  Biso   1.000  O
  O2784      1.0000 0.84204  0.26910  0.75591  Biso   1.000  O
  O2785      1.0000 0.83737  0.27956  0.76637  Biso   1.000  O
  O2786      1.0000 0.72044  0.47703  0.08078  Biso   1.000  O
  O2787      1.0000 0.76638  0.52297  0.64944  Biso   1.000  O
  O2788      1.0000 0.64945  0.47703  0.72043  Biso   1.000  O
  O2789      1.0000 0.59396  0.52297  0.76637  Biso   1.000  O
  O2790      1.0000 0.72044  0.59396  0.76637  Biso   1.000  O
  O2791      1.0000 0.76638  0.16263  0.72043  Biso   1.000  O
  O2792      1.0000 0.76638  0.59396  0.00978  Biso   1.000  O
  O2793      1.0000 0.76638  0.23362  0.08078  Biso   1.000  O
  O2794      1.0000 0.64945  0.27956  0.00978  Biso   1.000  O
  O2795      1.0000 0.59396  0.23362  0.96384  Biso   1.000  O
  O2796      1.0000 0.72044  0.16263  0.96384  Biso   1.000  O
  O2797      1.0000 0.72044  0.27956  0.64944  Biso   1.000  O
  O2798      1.0000 0.52297  0.59396  0.76637  Biso   1.000  O
  O2799      1.0000 0.52297  0.23362  0.83737  Biso   1.000  O
  O2800      1.0000 0.47703  0.27956  0.89285  Biso   1.000  O
  O2801      1.0000 0.40604  0.27956  0.76637  Biso   1.000  O
  O2802      1.0000 0.47703  0.16263  0.72043  Biso   1.000  O
  O2803      1.0000 0.83737  0.23362  0.72043  Biso   1.000  O
  O2804      1.0000 0.50000  0.50000  0.04608  Biso   1.000  O
  O2805      1.0000 0.50000  0.50000  0.07099  Biso   1.000  O
  O2806      1.0000 0.51251  0.48749  0.08545  Biso   1.000  O
  O2807      1.0000 0.50806  0.49194  0.62170  Biso   1.000  O
  O2808      1.0000 0.49194  0.50806  0.62170  Biso   1.000  O
  O2809      1.0000 0.48749  0.51251  0.08545  Biso   1.000  O
  O2810      1.0000 0.47703  0.52297  0.08078  Biso   1.000  O
  O2811      1.0000 0.59397  0.47703  0.00978  Biso   1.000  O
  O2812      1.0000 0.64945  0.52297  0.96384  Biso   1.000  O
  O2813      1.0000 0.52297  0.59396  0.96384  Biso   1.000  O
  O2814      1.0000 0.51363  0.48637  0.69318  Biso   1.000  O
  O2815      1.0000 0.50000  0.50000  0.68414  Biso   1.000  O
  O2816      1.0000 0.50000  0.50000  0.65923  Biso   1.000  O
  O2817      1.0000 0.48749  0.51251  0.64477  Biso   1.000  O
  O2818      1.0000 0.48637  0.51363  0.69318  Biso   1.000  O
  O2819      1.0000 0.51251  0.48749  0.64477  Biso   1.000  O
  O2820      1.0000 0.52297  0.47703  0.64944  Biso   1.000  O
  O2821      1.0000 0.47703  0.16263  0.00978  Biso   1.000  O
  O2822      1.0000 0.52297  0.47703  0.08078  Biso   1.000  O
  O2823      1.0000 0.40604  0.52297  0.00978  Biso   1.000  O
  O2824      1.0000 0.47703  0.40604  0.96384  Biso   1.000  O
  O2825      1.0000 0.52297  0.35056  0.00978  Biso   1.000  O
  O2826      1.0000 0.83737  0.47703  0.96384  Biso   1.000  O
  O2827      1.0000 0.99450  0.48132  0.48131  Biso   1.000  O
  O2828      1.0000 0.01318  0.50000  0.50000  Biso   1.000  O
  O2829      1.0000 0.99956  0.48637  0.44977  Biso   1.000  O
  O2830      1.0000 0.01318  0.50000  0.44073  Biso   1.000  O
  O2831      1.0000 0.01318  0.50000  0.41582  Biso   1.000  O
  O2832      1.0000 0.02569  0.51251  0.40136  Biso   1.000  O
  O2833      1.0000 0.02124  0.50806  0.37829  Biso   1.000  O
  O2834      1.0000 0.02681  0.51363  0.30681  Biso   1.000  O
  O2835      1.0000 0.01318  0.50000  0.31585  Biso   1.000  O
  O2836      1.0000 0.01318  0.50000  0.34076  Biso   1.000  O
  O2837      1.0000 0.00067  0.48749  0.35522  Biso   1.000  O
  O2838      1.0000 0.00513  0.49194  0.37829  Biso   1.000  O
  O2839      1.0000 0.02681  0.51363  0.44977  Biso   1.000  O
  O2840      1.0000 0.00067  0.48749  0.40136  Biso   1.000  O
  O2841      1.0000 0.99021  0.47703  0.40603  Biso   1.000  O
  O2842      1.0000 0.99956  0.48637  0.30681  Biso   1.000  O
  O2843      1.0000 0.02569  0.51251  0.35522  Biso   1.000  O
  O2844      1.0000 0.03615  0.52297  0.35055  Biso   1.000  O
  O2845      1.0000 0.03187  0.51868  0.48131  Biso   1.000  O
  O2846      1.0000 0.06341  0.51363  0.48637  Biso   1.000  O
  O2847      1.0000 0.07245  0.50000  0.50000  Biso   1.000  O
  O2848      1.0000 0.09736  0.50000  0.50000  Biso   1.000  O
  O2849      1.0000 0.11182  0.48749  0.51251  Biso   1.000  O
  O2850      1.0000 0.13489  0.49194  0.50805  Biso   1.000  O
  O2851      1.0000 0.20637  0.48637  0.51362  Biso   1.000  O
  O2852      1.0000 0.19732  0.50000  0.50000  Biso   1.000  O
  O2853      1.0000 0.17242  0.50000  0.50000  Biso   1.000  O
  O2854      1.0000 0.15796  0.51251  0.48748  Biso   1.000  O
  O2855      1.0000 0.13489  0.50806  0.49194  Biso   1.000  O
  O2856      1.0000 0.06341  0.48637  0.51362  Biso   1.000  O
  O2857      1.0000 0.11182  0.51251  0.48748  Biso   1.000  O
  O2858      1.0000 0.10715  0.52297  0.47703  Biso   1.000  O
  O2859      1.0000 0.20637  0.51363  0.48637  Biso   1.000  O
  O2860      1.0000 0.15796  0.48749  0.51251  Biso   1.000  O
  O2861      1.0000 0.16263  0.47703  0.52297  Biso   1.000  O
  O2862      1.0000 0.03187  0.48132  0.51868  Biso   1.000  O
  O2863      1.0000 0.02681  0.44977  0.51362  Biso   1.000  O
  O2864      1.0000 0.01318  0.44073  0.50000  Biso   1.000  O
  O2865      1.0000 0.01318  0.41583  0.50000  Biso   1.000  O
  O2866      1.0000 0.00067  0.40137  0.48748  Biso   1.000  O
  O2867      1.0000 0.00513  0.37830  0.49194  Biso   1.000  O
  O2868      1.0000 0.99956  0.30682  0.48637  Biso   1.000  O
  O2869      1.0000 0.01318  0.31586  0.50000  Biso   1.000  O
  O2870      1.0000 0.01318  0.34076  0.50000  Biso   1.000  O
  O2871      1.0000 0.02569  0.35523  0.51251  Biso   1.000  O
  O2872      1.0000 0.02124  0.37830  0.50805  Biso   1.000  O
  O2873      1.0000 0.99956  0.44977  0.48637  Biso   1.000  O
  O2874      1.0000 0.02569  0.40137  0.51251  Biso   1.000  O
  O2875      1.0000 0.03615  0.40604  0.52296  Biso   1.000  O
  O2876      1.0000 0.02681  0.30682  0.51362  Biso   1.000  O
  O2877      1.0000 0.00067  0.35523  0.48748  Biso   1.000  O
  O2878      1.0000 0.99021  0.35056  0.47703  Biso   1.000  O
  O2879      1.0000 0.99450  0.48132  0.27527  Biso   1.000  O
  O2880      1.0000 0.99450  0.27527  0.48131  Biso   1.000  O
  O2881      1.0000 0.23791  0.48132  0.51868  Biso   1.000  O
  O2882      1.0000 0.03187  0.27527  0.51868  Biso   1.000  O
  O2883      1.0000 0.23791  0.51868  0.48131  Biso   1.000  O
  O2884      1.0000 0.03187  0.51868  0.27527  Biso   1.000  O
  O2885      1.0000 0.99450  0.51868  0.51868  Biso   1.000  O
  O2886      1.0000 0.01318  0.50000  0.25659  Biso   1.000  O
  O2887      1.0000 0.99956  0.44977  0.27022  Biso   1.000  O
  O2888      1.0000 0.02681  0.48637  0.55022  Biso   1.000  O
  O2889      1.0000 0.96296  0.48637  0.27022  Biso   1.000  O
  O2890      1.0000 0.96296  0.48637  0.48637  Biso   1.000  O
  O2891      1.0000 0.02681  0.55023  0.48637  Biso   1.000  O
  O2892      1.0000 0.26465  0.50806  0.13488  Biso   1.000  O
  O2893      1.0000 0.27022  0.51363  0.55022  Biso   1.000  O
  O2894      1.0000 0.25659  0.50000  0.55926  Biso   1.000  O
  O2895      1.0000 0.25659  0.50000  0.58417  Biso   1.000  O
  O2896      1.0000 0.24408  0.48749  0.59863  Biso   1.000  O
  O2897      1.0000 0.24854  0.49194  0.13488  Biso   1.000  O
  O2898      1.0000 0.24296  0.48637  0.55022  Biso   1.000  O
  O2899      1.0000 0.26910  0.51251  0.59863  Biso   1.000  O
  O2900      1.0000 0.27956  0.52297  0.59396  Biso   1.000  O
  O2901      1.0000 0.27527  0.51868  0.51868  Biso   1.000  O
  O2902      1.0000 0.25659  0.50000  0.50000  Biso   1.000  O
  O2903      1.0000 0.24296  0.44977  0.51362  Biso   1.000  O
  O2904      1.0000 0.89148  0.49194  0.26464  Biso   1.000  O
  O2905      1.0000 0.95392  0.50000  0.25659  Biso   1.000  O
  O2906      1.0000 0.92901  0.50000  0.25659  Biso   1.000  O
  O2907      1.0000 0.91455  0.51251  0.24408  Biso   1.000  O
  O2908      1.0000 0.89148  0.50806  0.24853  Biso   1.000  O
  O2909      1.0000 0.96296  0.51363  0.24296  Biso   1.000  O
  O2910      1.0000 0.91455  0.48749  0.26910  Biso   1.000  O
  O2911      1.0000 0.91922  0.47703  0.27956  Biso   1.000  O
  O2912      1.0000 0.99450  0.51868  0.23790  Biso   1.000  O
  O2913      1.0000 0.23791  0.48132  0.23790  Biso   1.000  O
  O2914      1.0000 0.25659  0.50000  0.25659  Biso   1.000  O
  O2915      1.0000 0.24296  0.48637  0.20636  Biso   1.000  O
  O2916      1.0000 0.25659  0.50000  0.19732  Biso   1.000  O
  O2917      1.0000 0.25659  0.50000  0.17241  Biso   1.000  O
  O2918      1.0000 0.26910  0.51251  0.15795  Biso   1.000  O
  O2919      1.0000 0.27022  0.51363  0.20636  Biso   1.000  O
  O2920      1.0000 0.24408  0.48749  0.15795  Biso   1.000  O
  O2921      1.0000 0.23362  0.47703  0.16262  Biso   1.000  O
  O2922      1.0000 0.27527  0.51868  0.23790  Biso   1.000  O
  O2923      1.0000 0.30682  0.51363  0.24296  Biso   1.000  O
  O2924      1.0000 0.31586  0.50000  0.25659  Biso   1.000  O
  O2925      1.0000 0.34076  0.50000  0.25659  Biso   1.000  O
  O2926      1.0000 0.35523  0.48749  0.26910  Biso   1.000  O
  O2927      1.0000 0.30682  0.48637  0.27022  Biso   1.000  O
  O2928      1.0000 0.35523  0.51251  0.24408  Biso   1.000  O
  O2929      1.0000 0.35056  0.52297  0.23362  Biso   1.000  O
  O2930      1.0000 0.27527  0.48132  0.27527  Biso   1.000  O
  O2931      1.0000 0.27022  0.44977  0.27022  Biso   1.000  O
  O2932      1.0000 0.25659  0.44073  0.25659  Biso   1.000  O
  O2933      1.0000 0.25659  0.41583  0.25659  Biso   1.000  O
  O2934      1.0000 0.24408  0.40137  0.24408  Biso   1.000  O
  O2935      1.0000 0.24854  0.37830  0.24853  Biso   1.000  O
  O2936      1.0000 0.24296  0.30682  0.24296  Biso   1.000  O
  O2937      1.0000 0.25659  0.31586  0.25659  Biso   1.000  O
  O2938      1.0000 0.25659  0.34076  0.25659  Biso   1.000  O
  O2939      1.0000 0.26910  0.35523  0.26910  Biso   1.000  O
  O2940      1.0000 0.26465  0.37830  0.26464  Biso   1.000  O
  O2941      1.0000 0.24296  0.44977  0.24296  Biso   1.000  O
  O2942      1.0000 0.26910  0.40137  0.26910  Biso   1.000  O
  O2943      1.0000 0.27956  0.40604  0.27956  Biso   1.000  O
  O2944      1.0000 0.27022  0.30682  0.27022  Biso   1.000  O
  O2945      1.0000 0.24408  0.35523  0.24408  Biso   1.000  O
  O2946      1.0000 0.23362  0.35056  0.23362  Biso   1.000  O
  O2947      1.0000 0.23791  0.27527  0.23790  Biso   1.000  O
  O2948      1.0000 0.27527  0.27527  0.27527  Biso   1.000  O
  O2949      1.0000 0.23791  0.51868  0.27527  Biso   1.000  O
  O2950      1.0000 0.27022  0.48637  0.30681  Biso   1.000  O
  O2951      1.0000 0.20637  0.48637  0.24296  Biso   1.000  O
  O2952      1.0000 0.27022  0.55023  0.24296  Biso   1.000  O
  O2953      1.0000 0.24854  0.13489  0.49194  Biso   1.000  O
  O2954      1.0000 0.24296  0.55023  0.48637  Biso   1.000  O
  O2955      1.0000 0.25659  0.55927  0.50000  Biso   1.000  O
  O2956      1.0000 0.25659  0.58417  0.50000  Biso   1.000  O
  O2957      1.0000 0.26910  0.59863  0.51251  Biso   1.000  O
  O2958      1.0000 0.26465  0.13489  0.50805  Biso   1.000  O
  O2959      1.0000 0.27022  0.55023  0.51362  Biso   1.000  O
  O2960      1.0000 0.24408  0.59863  0.48748  Biso   1.000  O
  O2961      1.0000 0.23362  0.59396  0.47703  Biso   1.000  O
  O2962      1.0000 0.89148  0.24853  0.50805  Biso   1.000  O
  O2963      1.0000 0.96296  0.24296  0.51362  Biso   1.000  O
  O2964      1.0000 0.95392  0.25659  0.50000  Biso   1.000  O
  O2965      1.0000 0.92901  0.25659  0.50000  Biso   1.000  O
  O2966      1.0000 0.91455  0.26910  0.48748  Biso   1.000  O
  O2967      1.0000 0.89148  0.26465  0.49194  Biso   1.000  O
  O2968      1.0000 0.96296  0.27022  0.48637  Biso   1.000  O
  O2969      1.0000 0.91455  0.24408  0.51251  Biso   1.000  O
  O2970      1.0000 0.91922  0.23362  0.52297  Biso   1.000  O
  O2971      1.0000 0.99450  0.23791  0.51868  Biso   1.000  O
  O2972      1.0000 0.23791  0.23791  0.48131  Biso   1.000  O
  O2973      1.0000 0.25659  0.25659  0.50000  Biso   1.000  O
  O2974      1.0000 0.24296  0.24296  0.44977  Biso   1.000  O
  O2975      1.0000 0.25659  0.25659  0.44073  Biso   1.000  O
  O2976      1.0000 0.25659  0.25659  0.41582  Biso   1.000  O
  O2977      1.0000 0.26910  0.26910  0.40136  Biso   1.000  O
  O2978      1.0000 0.26465  0.26465  0.37829  Biso   1.000  O
  O2979      1.0000 0.27022  0.27022  0.30681  Biso   1.000  O
  O2980      1.0000 0.25659  0.25659  0.31585  Biso   1.000  O
  O2981      1.0000 0.25659  0.25659  0.34076  Biso   1.000  O
  O2982      1.0000 0.24408  0.24408  0.35522  Biso   1.000  O
  O2983      1.0000 0.24854  0.24853  0.37829  Biso   1.000  O
  O2984      1.0000 0.27022  0.27022  0.44977  Biso   1.000  O
  O2985      1.0000 0.24408  0.24408  0.40136  Biso   1.000  O
  O2986      1.0000 0.23362  0.23362  0.40603  Biso   1.000  O
  O2987      1.0000 0.24296  0.24296  0.30681  Biso   1.000  O
  O2988      1.0000 0.26910  0.26910  0.35522  Biso   1.000  O
  O2989      1.0000 0.27956  0.27956  0.35055  Biso   1.000  O
  O2990      1.0000 0.27527  0.27527  0.48131  Biso   1.000  O
  O2991      1.0000 0.30682  0.27022  0.48637  Biso   1.000  O
  O2992      1.0000 0.31586  0.25659  0.50000  Biso   1.000  O
  O2993      1.0000 0.34076  0.25659  0.50000  Biso   1.000  O
  O2994      1.0000 0.35523  0.24408  0.51251  Biso   1.000  O
  O2995      1.0000 0.30682  0.24296  0.51362  Biso   1.000  O
  O2996      1.0000 0.35523  0.26910  0.48748  Biso   1.000  O
  O2997      1.0000 0.35056  0.27956  0.47703  Biso   1.000  O
  O2998      1.0000 0.27527  0.23791  0.51868  Biso   1.000  O
  O2999      1.0000 0.27022  0.20637  0.51362  Biso   1.000  O
  O3000      1.0000 0.25659  0.19732  0.50000  Biso   1.000  O
  O3001      1.0000 0.25659  0.17242  0.50000  Biso   1.000  O
  O3002      1.0000 0.24408  0.15796  0.48748  Biso   1.000  O
  O3003      1.0000 0.24296  0.20637  0.48637  Biso   1.000  O
  O3004      1.0000 0.26910  0.15796  0.51251  Biso   1.000  O
  O3005      1.0000 0.27956  0.16263  0.52296  Biso   1.000  O
  O3006      1.0000 0.23791  0.23791  0.27527  Biso   1.000  O
  O3007      1.0000 0.23791  0.27527  0.51868  Biso   1.000  O
  O3008      1.0000 0.25659  0.25659  0.25659  Biso   1.000  O
  O3009      1.0000 0.24296  0.20637  0.27022  Biso   1.000  O
  O3010      1.0000 0.27022  0.24296  0.55022  Biso   1.000  O
  O3011      1.0000 0.20637  0.24296  0.27022  Biso   1.000  O
  O3012      1.0000 0.20637  0.24296  0.48637  Biso   1.000  O
  O3013      1.0000 0.27022  0.30682  0.48637  Biso   1.000  O
  O3014      1.0000 0.00513  0.13489  0.24853  Biso   1.000  O
  O3015      1.0000 0.99956  0.55023  0.24296  Biso   1.000  O
  O3016      1.0000 0.01318  0.55927  0.25659  Biso   1.000  O
  O3017      1.0000 0.01318  0.58417  0.25659  Biso   1.000  O
  O3018      1.0000 0.02569  0.59863  0.26910  Biso   1.000  O
  O3019      1.0000 0.02124  0.13489  0.26464  Biso   1.000  O
  O3020      1.0000 0.02681  0.55023  0.27022  Biso   1.000  O
  O3021      1.0000 0.00067  0.59864  0.24408  Biso   1.000  O
  O3022      1.0000 0.99021  0.59396  0.23362  Biso   1.000  O
  O3023      1.0000 0.02124  0.26465  0.13488  Biso   1.000  O
  O3024      1.0000 0.02681  0.27022  0.55022  Biso   1.000  O
  O3025      1.0000 0.01318  0.25659  0.55926  Biso   1.000  O
  O3026      1.0000 0.01318  0.25659  0.58417  Biso   1.000  O
  O3027      1.0000 0.00067  0.24408  0.59863  Biso   1.000  O
  O3028      1.0000 0.00513  0.24853  0.13488  Biso   1.000  O
  O3029      1.0000 0.99956  0.24296  0.55022  Biso   1.000  O
  O3030      1.0000 0.02569  0.26910  0.59863  Biso   1.000  O
  O3031      1.0000 0.03615  0.27956  0.59396  Biso   1.000  O
  O3032      1.0000 0.01318  0.25659  0.50000  Biso   1.000  O
  O3033      1.0000 0.99956  0.20637  0.51362  Biso   1.000  O
  O3034      1.0000 0.99450  0.23791  0.23790  Biso   1.000  O
  O3035      1.0000 0.01318  0.25659  0.25659  Biso   1.000  O
  O3036      1.0000 0.99955  0.24296  0.20636  Biso   1.000  O
  O3037      1.0000 0.01318  0.25659  0.19732  Biso   1.000  O
  O3038      1.0000 0.01318  0.25659  0.17241  Biso   1.000  O
  O3039      1.0000 0.02569  0.26910  0.15795  Biso   1.000  O
  O3040      1.0000 0.02681  0.27022  0.20636  Biso   1.000  O
  O3041      1.0000 0.00067  0.24408  0.15795  Biso   1.000  O
  O3042      1.0000 0.99021  0.23362  0.16262  Biso   1.000  O
  O3043      1.0000 0.03187  0.27527  0.23790  Biso   1.000  O
  O3044      1.0000 0.06341  0.27022  0.24296  Biso   1.000  O
  O3045      1.0000 0.07245  0.25659  0.25659  Biso   1.000  O
  O3046      1.0000 0.09736  0.25659  0.25659  Biso   1.000  O
  O3047      1.0000 0.11182  0.24408  0.26910  Biso   1.000  O
  O3048      1.0000 0.13489  0.24853  0.26464  Biso   1.000  O
  O3049      1.0000 0.19732  0.25659  0.25659  Biso   1.000  O
  O3050      1.0000 0.17242  0.25659  0.25659  Biso   1.000  O
  O3051      1.0000 0.15796  0.26910  0.24408  Biso   1.000  O
  O3052      1.0000 0.13489  0.26465  0.24853  Biso   1.000  O
  O3053      1.0000 0.06341  0.24296  0.27022  Biso   1.000  O
  O3054      1.0000 0.11182  0.26910  0.24408  Biso   1.000  O
  O3055      1.0000 0.10715  0.27956  0.23362  Biso   1.000  O
  O3056      1.0000 0.20637  0.27022  0.24296  Biso   1.000  O
  O3057      1.0000 0.15796  0.24408  0.26910  Biso   1.000  O
  O3058      1.0000 0.16263  0.23362  0.27956  Biso   1.000  O
  O3059      1.0000 0.03187  0.23791  0.27527  Biso   1.000  O
  O3060      1.0000 0.02681  0.20637  0.27022  Biso   1.000  O
  O3061      1.0000 0.01318  0.19732  0.25659  Biso   1.000  O
  O3062      1.0000 0.01318  0.17242  0.25659  Biso   1.000  O
  O3063      1.0000 0.00067  0.15796  0.24408  Biso   1.000  O
  O3064      1.0000 0.99956  0.20637  0.24296  Biso   1.000  O
  O3065      1.0000 0.02569  0.15796  0.26910  Biso   1.000  O
  O3066      1.0000 0.03615  0.16263  0.27956  Biso   1.000  O
  O3067      1.0000 0.99450  0.27527  0.27527  Biso   1.000  O
  O3068      1.0000 0.02681  0.24296  0.30681  Biso   1.000  O
  O3069      1.0000 0.96296  0.24296  0.24296  Biso   1.000  O
  O3070      1.0000 0.02681  0.30682  0.24296  Biso   1.000  O
  O3071      1.0000 0.27956  0.27956  0.40603  Biso   1.000  O
  O3072      1.0000 0.23362  0.23362  0.35055  Biso   1.000  O
  O3073      1.0000 0.19732  0.25659  0.50000  Biso   1.000  O
  O3074      1.0000 0.17242  0.25659  0.50000  Biso   1.000  O
  O3075      1.0000 0.15796  0.26910  0.51251  Biso   1.000  O
  O3076      1.0000 0.13489  0.26465  0.50805  Biso   1.000  O
  O3077      1.0000 0.06341  0.27022  0.51362  Biso   1.000  O
  O3078      1.0000 0.07245  0.25659  0.50000  Biso   1.000  O
  O3079      1.0000 0.09736  0.25659  0.50000  Biso   1.000  O
  O3080      1.0000 0.11182  0.24408  0.48748  Biso   1.000  O
  O3081      1.0000 0.13489  0.24853  0.49194  Biso   1.000  O
  O3082      1.0000 0.20637  0.27022  0.51362  Biso   1.000  O
  O3083      1.0000 0.15796  0.24408  0.48748  Biso   1.000  O
  O3084      1.0000 0.16263  0.23362  0.47703  Biso   1.000  O
  O3085      1.0000 0.06341  0.24296  0.48637  Biso   1.000  O
  O3086      1.0000 0.11182  0.26910  0.51251  Biso   1.000  O
  O3087      1.0000 0.10715  0.27956  0.52296  Biso   1.000  O
  O3088      1.0000 0.24296  0.30682  0.51362  Biso   1.000  O
  O3089      1.0000 0.25659  0.31586  0.50000  Biso   1.000  O
  O3090      1.0000 0.25659  0.34076  0.50000  Biso   1.000  O
  O3091      1.0000 0.26910  0.35523  0.48748  Biso   1.000  O
  O3092      1.0000 0.26465  0.37830  0.49194  Biso   1.000  O
  O3093      1.0000 0.27022  0.44977  0.48637  Biso   1.000  O
  O3094      1.0000 0.25659  0.44073  0.50000  Biso   1.000  O
  O3095      1.0000 0.25659  0.41583  0.50000  Biso   1.000  O
  O3096      1.0000 0.24408  0.40137  0.51251  Biso   1.000  O
  O3097      1.0000 0.24854  0.37830  0.50805  Biso   1.000  O
  O3098      1.0000 0.24408  0.35523  0.51251  Biso   1.000  O
  O3099      1.0000 0.23362  0.35056  0.52296  Biso   1.000  O
  O3100      1.0000 0.26910  0.40137  0.48748  Biso   1.000  O
  O3101      1.0000 0.27956  0.40604  0.47703  Biso   1.000  O
  O3102      1.0000 0.27527  0.48132  0.48131  Biso   1.000  O
  O3103      1.0000 0.03187  0.23791  0.48131  Biso   1.000  O
  O3104      1.0000 0.24296  0.27022  0.55022  Biso   1.000  O
  O3105      1.0000 0.30682  0.27022  0.27022  Biso   1.000  O
  O3106      1.0000 0.99956  0.27022  0.30681  Biso   1.000  O
  O3107      1.0000 0.01318  0.25659  0.31585  Biso   1.000  O
  O3108      1.0000 0.01318  0.25659  0.34076  Biso   1.000  O
  O3109      1.0000 0.02569  0.24408  0.35522  Biso   1.000  O
  O3110      1.0000 0.02124  0.24853  0.37829  Biso   1.000  O
  O3111      1.0000 0.02681  0.24296  0.44977  Biso   1.000  O
  O3112      1.0000 0.01318  0.25659  0.44073  Biso   1.000  O
  O3113      1.0000 0.01318  0.25659  0.41582  Biso   1.000  O
  O3114      1.0000 0.00067  0.26910  0.40136  Biso   1.000  O
  O3115      1.0000 0.00513  0.26465  0.37829  Biso   1.000  O
  O3116      1.0000 0.00067  0.26910  0.35522  Biso   1.000  O
  O3117      1.0000 0.99021  0.27956  0.35055  Biso   1.000  O
  O3118      1.0000 0.99956  0.27022  0.44977  Biso   1.000  O
  O3119      1.0000 0.02569  0.24408  0.40136  Biso   1.000  O
  O3120      1.0000 0.03615  0.23362  0.40603  Biso   1.000  O
  O3121      1.0000 0.10715  0.23362  0.27956  Biso   1.000  O
  O3122      1.0000 0.16263  0.27956  0.23362  Biso   1.000  O
  O3123      1.0000 0.01318  0.31586  0.25659  Biso   1.000  O
  O3124      1.0000 0.01318  0.34076  0.25659  Biso   1.000  O
  O3125      1.0000 0.00067  0.35523  0.26910  Biso   1.000  O
  O3126      1.0000 0.00513  0.37830  0.26464  Biso   1.000  O
  O3127      1.0000 0.01318  0.44073  0.25659  Biso   1.000  O
  O3128      1.0000 0.01318  0.41583  0.25659  Biso   1.000  O
  O3129      1.0000 0.02569  0.40137  0.24408  Biso   1.000  O
  O3130      1.0000 0.02124  0.37830  0.24853  Biso   1.000  O
  O3131      1.0000 0.99956  0.30682  0.27022  Biso   1.000  O
  O3132      1.0000 0.02569  0.35523  0.24408  Biso   1.000  O
  O3133      1.0000 0.03615  0.35056  0.23362  Biso   1.000  O
  O3134      1.0000 0.02681  0.44977  0.24296  Biso   1.000  O
  O3135      1.0000 0.00067  0.40137  0.26910  Biso   1.000  O
  O3136      1.0000 0.99021  0.40604  0.27956  Biso   1.000  O
  O3137      1.0000 0.03187  0.48132  0.23790  Biso   1.000  O
  O3138      1.0000 0.96296  0.27022  0.27022  Biso   1.000  O
  O3139      1.0000 0.03615  0.52297  0.40603  Biso   1.000  O
  O3140      1.0000 0.99021  0.47703  0.35055  Biso   1.000  O
  O3141      1.0000 0.95392  0.50000  0.50000  Biso   1.000  O
  O3142      1.0000 0.92901  0.50000  0.50000  Biso   1.000  O
  O3143      1.0000 0.91455  0.51251  0.51251  Biso   1.000  O
  O3144      1.0000 0.89148  0.50806  0.50805  Biso   1.000  O
  O3145      1.0000 0.89148  0.49194  0.49194  Biso   1.000  O
  O3146      1.0000 0.96296  0.51363  0.51362  Biso   1.000  O
  O3147      1.0000 0.91455  0.48749  0.48748  Biso   1.000  O
  O3148      1.0000 0.91922  0.47703  0.47703  Biso   1.000  O
  O3149      1.0000 0.99956  0.55023  0.51362  Biso   1.000  O
  O3150      1.0000 0.01318  0.55927  0.50000  Biso   1.000  O
  O3151      1.0000 0.01318  0.58417  0.50000  Biso   1.000  O
  O3152      1.0000 0.02569  0.59863  0.48748  Biso   1.000  O
  O3153      1.0000 0.02124  0.13489  0.49194  Biso   1.000  O
  O3154      1.0000 0.00513  0.13489  0.50805  Biso   1.000  O
  O3155      1.0000 0.00067  0.59863  0.51251  Biso   1.000  O
  O3156      1.0000 0.99021  0.59396  0.52297  Biso   1.000  O
  O3157      1.0000 0.99956  0.51363  0.55022  Biso   1.000  O
  O3158      1.0000 0.06341  0.51363  0.27022  Biso   1.000  O
  O3159      1.0000 0.30682  0.51363  0.51362  Biso   1.000  O
  O3160      1.0000 0.31586  0.50000  0.50000  Biso   1.000  O
  O3161      1.0000 0.34076  0.50000  0.50000  Biso   1.000  O
  O3162      1.0000 0.35523  0.48749  0.48748  Biso   1.000  O
  O3163      1.0000 0.30682  0.48637  0.48637  Biso   1.000  O
  O3164      1.0000 0.35523  0.51251  0.51251  Biso   1.000  O
  O3165      1.0000 0.35056  0.52297  0.52296  Biso   1.000  O
  O3166      1.0000 0.02681  0.20637  0.48637  Biso   1.000  O
  O3167      1.0000 0.01318  0.19732  0.50000  Biso   1.000  O
  O3168      1.0000 0.01318  0.17242  0.50000  Biso   1.000  O
  O3169      1.0000 0.00067  0.15796  0.51251  Biso   1.000  O
  O3170      1.0000 0.02569  0.15796  0.48748  Biso   1.000  O
  O3171      1.0000 0.03615  0.16263  0.47703  Biso   1.000  O
  O3172      1.0000 0.25659  0.50000  0.31585  Biso   1.000  O
  O3173      1.0000 0.25659  0.50000  0.34076  Biso   1.000  O
  O3174      1.0000 0.24408  0.51251  0.35522  Biso   1.000  O
  O3175      1.0000 0.24854  0.50806  0.37829  Biso   1.000  O
  O3176      1.0000 0.24296  0.51363  0.44977  Biso   1.000  O
  O3177      1.0000 0.25659  0.50000  0.44073  Biso   1.000  O
  O3178      1.0000 0.25659  0.50000  0.41582  Biso   1.000  O
  O3179      1.0000 0.26910  0.48749  0.40136  Biso   1.000  O
  O3180      1.0000 0.26465  0.49194  0.37829  Biso   1.000  O
  O3181      1.0000 0.24296  0.51363  0.30681  Biso   1.000  O
  O3182      1.0000 0.26910  0.48749  0.35522  Biso   1.000  O
  O3183      1.0000 0.27956  0.47703  0.35055  Biso   1.000  O
  O3184      1.0000 0.27022  0.48637  0.44977  Biso   1.000  O
  O3185      1.0000 0.24408  0.51251  0.40136  Biso   1.000  O
  O3186      1.0000 0.23362  0.52297  0.40603  Biso   1.000  O
  O3187      1.0000 0.20637  0.51363  0.27022  Biso   1.000  O
  O3188      1.0000 0.19732  0.50000  0.25659  Biso   1.000  O
  O3189      1.0000 0.17242  0.50000  0.25659  Biso   1.000  O
  O3190      1.0000 0.15796  0.48749  0.24408  Biso   1.000  O
  O3191      1.0000 0.13489  0.49194  0.24853  Biso   1.000  O
  O3192      1.0000 0.06341  0.48637  0.24296  Biso   1.000  O
  O3193      1.0000 0.07245  0.50000  0.25659  Biso   1.000  O
  O3194      1.0000 0.09736  0.50000  0.25659  Biso   1.000  O
  O3195      1.0000 0.11182  0.51251  0.26910  Biso   1.000  O
  O3196      1.0000 0.13489  0.50806  0.26464  Biso   1.000  O
  O3197      1.0000 0.15796  0.51251  0.26910  Biso   1.000  O
  O3198      1.0000 0.16263  0.52297  0.27956  Biso   1.000  O
  O3199      1.0000 0.11182  0.48749  0.24408  Biso   1.000  O
  O3200      1.0000 0.10715  0.47703  0.23362  Biso   1.000  O
  O3201      1.0000 0.23362  0.40604  0.23362  Biso   1.000  O
  O3202      1.0000 0.27956  0.35056  0.27956  Biso   1.000  O
  O3203      1.0000 0.24296  0.55023  0.27022  Biso   1.000  O
  O3204      1.0000 0.91922  0.52297  0.23362  Biso   1.000  O
  O3205      1.0000 0.23362  0.52297  0.35055  Biso   1.000  O
  O3206      1.0000 0.27956  0.47703  0.40603  Biso   1.000  O
  O3207      1.0000 0.35056  0.47703  0.27956  Biso   1.000  O
  O3208      1.0000 0.25659  0.55927  0.25659  Biso   1.000  O
  O3209      1.0000 0.25659  0.58417  0.25659  Biso   1.000  O
  O3210      1.0000 0.24408  0.59863  0.26910  Biso   1.000  O
  O3211      1.0000 0.24854  0.13489  0.26464  Biso   1.000  O
  O3212      1.0000 0.26465  0.13489  0.24853  Biso   1.000  O
  O3213      1.0000 0.26910  0.59864  0.24408  Biso   1.000  O
  O3214      1.0000 0.27956  0.59396  0.23362  Biso   1.000  O
  O3215      1.0000 0.25659  0.19732  0.25659  Biso   1.000  O
  O3216      1.0000 0.25659  0.17242  0.25659  Biso   1.000  O
  O3217      1.0000 0.26910  0.15796  0.24408  Biso   1.000  O
  O3218      1.0000 0.27022  0.20637  0.24296  Biso   1.000  O
  O3219      1.0000 0.24408  0.15796  0.26910  Biso   1.000  O
  O3220      1.0000 0.23362  0.16263  0.27956  Biso   1.000  O
  O3221      1.0000 0.27527  0.23791  0.23790  Biso   1.000  O
  O3222      1.0000 0.91922  0.27956  0.47703  Biso   1.000  O
  O3223      1.0000 0.25659  0.25659  0.55926  Biso   1.000  O
  O3224      1.0000 0.25659  0.25659  0.58417  Biso   1.000  O
  O3225      1.0000 0.26910  0.24408  0.59863  Biso   1.000  O
  O3226      1.0000 0.26465  0.24853  0.13488  Biso   1.000  O
  O3227      1.0000 0.24854  0.26465  0.13488  Biso   1.000  O
  O3228      1.0000 0.24408  0.26910  0.59863  Biso   1.000  O
  O3229      1.0000 0.23362  0.27956  0.59396  Biso   1.000  O
  O3230      1.0000 0.35056  0.23362  0.52296  Biso   1.000  O
  O3231      1.0000 0.27956  0.35056  0.47703  Biso   1.000  O
  O3232      1.0000 0.23362  0.40604  0.52296  Biso   1.000  O
  O3233      1.0000 0.27022  0.24296  0.20636  Biso   1.000  O
  O3234      1.0000 0.25659  0.25659  0.19732  Biso   1.000  O
  O3235      1.0000 0.25659  0.25659  0.17241  Biso   1.000  O
  O3236      1.0000 0.24408  0.26910  0.15795  Biso   1.000  O
  O3237      1.0000 0.24296  0.27022  0.20636  Biso   1.000  O
  O3238      1.0000 0.26910  0.24408  0.15795  Biso   1.000  O
  O3239      1.0000 0.27956  0.23362  0.16262  Biso   1.000  O
  O3240      1.0000 0.99021  0.23362  0.59396  Biso   1.000  O
  O3241      1.0000 0.03615  0.27956  0.16262  Biso   1.000  O
  O3242      1.0000 0.95392  0.25659  0.25659  Biso   1.000  O
  O3243      1.0000 0.92901  0.25659  0.25659  Biso   1.000  O
  O3244      1.0000 0.91455  0.26910  0.26910  Biso   1.000  O
  O3245      1.0000 0.89148  0.26465  0.26464  Biso   1.000  O
  O3246      1.0000 0.89148  0.24853  0.24853  Biso   1.000  O
  O3247      1.0000 0.91455  0.24408  0.24408  Biso   1.000  O
  O3248      1.0000 0.91922  0.23362  0.23362  Biso   1.000  O
  O3249      1.0000 0.99021  0.35056  0.27956  Biso   1.000  O
  O3250      1.0000 0.03615  0.40604  0.23362  Biso   1.000  O
  O3251      1.0000 0.31586  0.25659  0.25659  Biso   1.000  O
  O3252      1.0000 0.34076  0.25659  0.25659  Biso   1.000  O
  O3253      1.0000 0.35523  0.24408  0.24408  Biso   1.000  O
  O3254      1.0000 0.30682  0.24296  0.24296  Biso   1.000  O
  O3255      1.0000 0.35523  0.26910  0.26910  Biso   1.000  O
  O3256      1.0000 0.35056  0.27956  0.27956  Biso   1.000  O
  O3257      1.0000 0.23362  0.47703  0.59396  Biso   1.000  O
  O3258      1.0000 0.27956  0.52297  0.16262  Biso   1.000  O
  O3259      1.0000 0.16263  0.47703  0.23362  Biso   1.000  O
  O3260      1.0000 0.10715  0.52297  0.27956  Biso   1.000  O
  O3261      1.0000 0.23362  0.59396  0.27956  Biso   1.000  O
  O3262      1.0000 0.27956  0.16263  0.23362  Biso   1.000  O
  O3263      1.0000 0.27956  0.59396  0.52297  Biso   1.000  O
  O3264      1.0000 0.27956  0.23362  0.59396  Biso   1.000  O
  O3265      1.0000 0.16263  0.27956  0.52296  Biso   1.000  O
  O3266      1.0000 0.10715  0.23362  0.47703  Biso   1.000  O
  O3267      1.0000 0.23362  0.16263  0.47703  Biso   1.000  O
  O3268      1.0000 0.23362  0.27956  0.16262  Biso   1.000  O
  O3269      1.0000 0.03615  0.59396  0.27956  Biso   1.000  O
  O3270      1.0000 0.03615  0.23362  0.35055  Biso   1.000  O
  O3271      1.0000 0.99021  0.27956  0.40603  Biso   1.000  O
  O3272      1.0000 0.91922  0.27956  0.27956  Biso   1.000  O
  O3273      1.0000 0.99021  0.16263  0.23362  Biso   1.000  O
  O3274      1.0000 0.35056  0.23362  0.23362  Biso   1.000  O
  O3275      1.0000 0.01318  0.50000  0.55926  Biso   1.000  O
  O3276      1.0000 0.01318  0.50000  0.58417  Biso   1.000  O
  O3277      1.0000 0.02569  0.48749  0.59863  Biso   1.000  O
  O3278      1.0000 0.02124  0.49194  0.13488  Biso   1.000  O
  O3279      1.0000 0.00513  0.50806  0.13488  Biso   1.000  O
  O3280      1.0000 0.00067  0.51251  0.59863  Biso   1.000  O
  O3281      1.0000 0.99021  0.52297  0.59396  Biso   1.000  O
  O3282      1.0000 0.10715  0.47703  0.52296  Biso   1.000  O
  O3283      1.0000 0.16263  0.52297  0.47703  Biso   1.000  O
  O3284      1.0000 0.03615  0.59396  0.47703  Biso   1.000  O
  O3285      1.0000 0.02681  0.48637  0.20636  Biso   1.000  O
  O3286      1.0000 0.01318  0.50000  0.19732  Biso   1.000  O
  O3287      1.0000 0.01318  0.50000  0.17241  Biso   1.000  O
  O3288      1.0000 0.00067  0.51251  0.15795  Biso   1.000  O
  O3289      1.0000 0.99956  0.51363  0.20636  Biso   1.000  O
  O3290      1.0000 0.02569  0.48749  0.15795  Biso   1.000  O
  O3291      1.0000 0.03615  0.47703  0.16262  Biso   1.000  O
  O3292      1.0000 0.99021  0.16263  0.52296  Biso   1.000  O
  O3293      1.0000 0.03615  0.47703  0.59396  Biso   1.000  O
  O3294      1.0000 0.91922  0.52297  0.52297  Biso   1.000  O
  O3295      1.0000 0.99021  0.40604  0.47703  Biso   1.000  O
  O3296      1.0000 0.03615  0.35056  0.52297  Biso   1.000  O
  O3297      1.0000 0.35056  0.47703  0.47703  Biso   1.000  O
  O3298      1.0000 0.48132  0.48132  0.48131  Biso   1.000  O
  O3299      1.0000 0.50000  0.50000  0.50000  Biso   1.000  O
  O3300      1.0000 0.48637  0.48637  0.44977  Biso   1.000  O
  O3301      1.0000 0.50000  0.50000  0.44073  Biso   1.000  O
  O3302      1.0000 0.50000  0.50000  0.41582  Biso   1.000  O
  O3303      1.0000 0.51251  0.51251  0.40136  Biso   1.000  O
  O3304      1.0000 0.50806  0.50806  0.37829  Biso   1.000  O
  O3305      1.0000 0.51363  0.51363  0.30681  Biso   1.000  O
  O3306      1.0000 0.50000  0.50000  0.31585  Biso   1.000  O
  O3307      1.0000 0.50000  0.50000  0.34076  Biso   1.000  O
  O3308      1.0000 0.48749  0.48749  0.35522  Biso   1.000  O
  O3309      1.0000 0.49194  0.49194  0.37829  Biso   1.000  O
  O3310      1.0000 0.51363  0.51363  0.44977  Biso   1.000  O
  O3311      1.0000 0.48749  0.48749  0.40136  Biso   1.000  O
  O3312      1.0000 0.47703  0.47703  0.40603  Biso   1.000  O
  O3313      1.0000 0.48637  0.48637  0.30681  Biso   1.000  O
  O3314      1.0000 0.51251  0.51251  0.35522  Biso   1.000  O
  O3315      1.0000 0.52297  0.52297  0.35055  Biso   1.000  O
  O3316      1.0000 0.51868  0.51868  0.48131  Biso   1.000  O
  O3317      1.0000 0.55023  0.51363  0.48637  Biso   1.000  O
  O3318      1.0000 0.55927  0.50000  0.50000  Biso   1.000  O
  O3319      1.0000 0.58417  0.50000  0.50000  Biso   1.000  O
  O3320      1.0000 0.59864  0.48749  0.51251  Biso   1.000  O
  O3321      1.0000 0.62171  0.49194  0.50805  Biso   1.000  O
  O3322      1.0000 0.69318  0.48637  0.51362  Biso   1.000  O
  O3323      1.0000 0.68414  0.50000  0.50000  Biso   1.000  O
  O3324      1.0000 0.65924  0.50000  0.50000  Biso   1.000  O
  O3325      1.0000 0.64478  0.51251  0.48748  Biso   1.000  O
  O3326      1.0000 0.62171  0.50806  0.49194  Biso   1.000  O
  O3327      1.0000 0.55023  0.48637  0.51362  Biso   1.000  O
  O3328      1.0000 0.59864  0.51251  0.48748  Biso   1.000  O
  O3329      1.0000 0.59396  0.52297  0.47703  Biso   1.000  O
  O3330      1.0000 0.69318  0.51363  0.48637  Biso   1.000  O
  O3331      1.0000 0.64478  0.48749  0.51251  Biso   1.000  O
  O3332      1.0000 0.64945  0.47703  0.52296  Biso   1.000  O
  O3333      1.0000 0.51868  0.48132  0.51868  Biso   1.000  O
  O3334      1.0000 0.51363  0.44977  0.51362  Biso   1.000  O
  O3335      1.0000 0.50000  0.44073  0.50000  Biso   1.000  O
  O3336      1.0000 0.50000  0.41583  0.50000  Biso   1.000  O
  O3337      1.0000 0.48749  0.40137  0.48748  Biso   1.000  O
  O3338      1.0000 0.49194  0.37830  0.49194  Biso   1.000  O
  O3339      1.0000 0.48637  0.30682  0.48637  Biso   1.000  O
  O3340      1.0000 0.50000  0.31586  0.50000  Biso   1.000  O
  O3341      1.0000 0.50000  0.34076  0.50000  Biso   1.000  O
  O3342      1.0000 0.51251  0.35523  0.51251  Biso   1.000  O
  O3343      1.0000 0.50806  0.37830  0.50805  Biso   1.000  O
  O3344      1.0000 0.48637  0.44977  0.48637  Biso   1.000  O
  O3345      1.0000 0.51251  0.40137  0.51251  Biso   1.000  O
  O3346      1.0000 0.52297  0.40604  0.52296  Biso   1.000  O
  O3347      1.0000 0.51363  0.30682  0.51362  Biso   1.000  O
  O3348      1.0000 0.48749  0.35523  0.48748  Biso   1.000  O
  O3349      1.0000 0.47703  0.35056  0.47703  Biso   1.000  O
  O3350      1.0000 0.48132  0.48132  0.27527  Biso   1.000  O
  O3351      1.0000 0.48132  0.27527  0.48131  Biso   1.000  O
  O3352      1.0000 0.72473  0.48132  0.51868  Biso   1.000  O
  O3353      1.0000 0.51868  0.27527  0.51868  Biso   1.000  O
  O3354      1.0000 0.72473  0.51868  0.48131  Biso   1.000  O
  O3355      1.0000 0.51868  0.51868  0.27527  Biso   1.000  O
  O3356      1.0000 0.48132  0.51868  0.51868  Biso   1.000  O
  O3357      1.0000 0.50000  0.50000  0.25659  Biso   1.000  O
  O3358      1.0000 0.48637  0.44977  0.27022  Biso   1.000  O
  O3359      1.0000 0.51363  0.48637  0.55022  Biso   1.000  O
  O3360      1.0000 0.44977  0.48637  0.27022  Biso   1.000  O
  O3361      1.0000 0.44977  0.48637  0.48637  Biso   1.000  O
  O3362      1.0000 0.51363  0.55023  0.48637  Biso   1.000  O
  O3363      1.0000 0.75147  0.50806  0.13488  Biso   1.000  O
  O3364      1.0000 0.75704  0.51363  0.55022  Biso   1.000  O
  O3365      1.0000 0.74341  0.50000  0.55926  Biso   1.000  O
  O3366      1.0000 0.74341  0.50000  0.58417  Biso   1.000  O
  O3367      1.0000 0.73090  0.48749  0.59863  Biso   1.000  O
  O3368      1.0000 0.73535  0.49194  0.13488  Biso   1.000  O
  O3369      1.0000 0.72978  0.48637  0.55022  Biso   1.000  O
  O3370      1.0000 0.75592  0.51251  0.59863  Biso   1.000  O
  O3371      1.0000 0.76638  0.52297  0.59396  Biso   1.000  O
  O3372      1.0000 0.76209  0.51868  0.51868  Biso   1.000  O
  O3373      1.0000 0.74341  0.50000  0.50000  Biso   1.000  O
  O3374      1.0000 0.72978  0.44977  0.51362  Biso   1.000  O
  O3375      1.0000 0.37830  0.49194  0.26464  Biso   1.000  O
  O3376      1.0000 0.44073  0.50000  0.25659  Biso   1.000  O
  O3377      1.0000 0.41583  0.50000  0.25659  Biso   1.000  O
  O3378      1.0000 0.40137  0.51251  0.24408  Biso   1.000  O
  O3379      1.0000 0.37830  0.50806  0.24853  Biso   1.000  O
  O3380      1.0000 0.44977  0.51363  0.24296  Biso   1.000  O
  O3381      1.0000 0.40137  0.48749  0.26910  Biso   1.000  O
  O3382      1.0000 0.40604  0.47703  0.27956  Biso   1.000  O
  O3383      1.0000 0.48132  0.51868  0.23790  Biso   1.000  O
  O3384      1.0000 0.72473  0.48132  0.23790  Biso   1.000  O
  O3385      1.0000 0.74341  0.50000  0.25659  Biso   1.000  O
  O3386      1.0000 0.72978  0.48637  0.20636  Biso   1.000  O
  O3387      1.0000 0.74341  0.50000  0.19732  Biso   1.000  O
  O3388      1.0000 0.74341  0.50000  0.17241  Biso   1.000  O
  O3389      1.0000 0.75592  0.51251  0.15795  Biso   1.000  O
  O3390      1.0000 0.75704  0.51363  0.20636  Biso   1.000  O
  O3391      1.0000 0.73090  0.48749  0.15795  Biso   1.000  O
  O3392      1.0000 0.72044  0.47703  0.16262  Biso   1.000  O
  O3393      1.0000 0.76209  0.51868  0.23790  Biso   1.000  O
  O3394      1.0000 0.79364  0.51363  0.24296  Biso   1.000  O
  O3395      1.0000 0.80268  0.50000  0.25659  Biso   1.000  O
  O3396      1.0000 0.82758  0.50000  0.25659  Biso   1.000  O
  O3397      1.0000 0.84204  0.48749  0.26910  Biso   1.000  O
  O3398      1.0000 0.79364  0.48637  0.27022  Biso   1.000  O
  O3399      1.0000 0.84204  0.51251  0.24408  Biso   1.000  O
  O3400      1.0000 0.83737  0.52297  0.23362  Biso   1.000  O
  O3401      1.0000 0.76209  0.48132  0.27527  Biso   1.000  O
  O3402      1.0000 0.75704  0.44977  0.27022  Biso   1.000  O
  O3403      1.0000 0.74341  0.44073  0.25659  Biso   1.000  O
  O3404      1.0000 0.74341  0.41583  0.25659  Biso   1.000  O
  O3405      1.0000 0.73090  0.40137  0.24408  Biso   1.000  O
  O3406      1.0000 0.73535  0.37830  0.24853  Biso   1.000  O
  O3407      1.0000 0.72978  0.30682  0.24296  Biso   1.000  O
  O3408      1.0000 0.74341  0.31586  0.25659  Biso   1.000  O
  O3409      1.0000 0.74341  0.34076  0.25659  Biso   1.000  O
  O3410      1.0000 0.75592  0.35523  0.26910  Biso   1.000  O
  O3411      1.0000 0.75147  0.37830  0.26464  Biso   1.000  O
  O3412      1.0000 0.72978  0.44977  0.24296  Biso   1.000  O
  O3413      1.0000 0.75592  0.40137  0.26910  Biso   1.000  O
  O3414      1.0000 0.76638  0.40604  0.27956  Biso   1.000  O
  O3415      1.0000 0.75704  0.30682  0.27022  Biso   1.000  O
  O3416      1.0000 0.73090  0.35523  0.24408  Biso   1.000  O
  O3417      1.0000 0.72044  0.35056  0.23362  Biso   1.000  O
  O3418      1.0000 0.72473  0.27527  0.23790  Biso   1.000  O
  O3419      1.0000 0.76209  0.27527  0.27527  Biso   1.000  O
  O3420      1.0000 0.72473  0.51868  0.27527  Biso   1.000  O
  O3421      1.0000 0.75704  0.48637  0.30681  Biso   1.000  O
  O3422      1.0000 0.69318  0.48637  0.24296  Biso   1.000  O
  O3423      1.0000 0.75704  0.55023  0.24296  Biso   1.000  O
  O3424      1.0000 0.73535  0.13489  0.49194  Biso   1.000  O
  O3425      1.0000 0.72978  0.55023  0.48637  Biso   1.000  O
  O3426      1.0000 0.74341  0.55927  0.50000  Biso   1.000  O
  O3427      1.0000 0.74341  0.58417  0.50000  Biso   1.000  O
  O3428      1.0000 0.75592  0.59863  0.51251  Biso   1.000  O
  O3429      1.0000 0.75147  0.13489  0.50805  Biso   1.000  O
  O3430      1.0000 0.75704  0.55023  0.51362  Biso   1.000  O
  O3431      1.0000 0.73090  0.59863  0.48748  Biso   1.000  O
  O3432      1.0000 0.72044  0.59396  0.47703  Biso   1.000  O
  O3433      1.0000 0.37830  0.24853  0.50805  Biso   1.000  O
  O3434      1.0000 0.44977  0.24296  0.51362  Biso   1.000  O
  O3435      1.0000 0.44073  0.25659  0.50000  Biso   1.000  O
  O3436      1.0000 0.41583  0.25659  0.50000  Biso   1.000  O
  O3437      1.0000 0.40137  0.26910  0.48748  Biso   1.000  O
  O3438      1.0000 0.37830  0.26465  0.49194  Biso   1.000  O
  O3439      1.0000 0.44977  0.27022  0.48637  Biso   1.000  O
  O3440      1.0000 0.40137  0.24408  0.51251  Biso   1.000  O
  O3441      1.0000 0.40604  0.23362  0.52296  Biso   1.000  O
  O3442      1.0000 0.48132  0.23791  0.51868  Biso   1.000  O
  O3443      1.0000 0.72473  0.23791  0.48131  Biso   1.000  O
  O3444      1.0000 0.74341  0.25659  0.50000  Biso   1.000  O
  O3445      1.0000 0.72978  0.24296  0.44977  Biso   1.000  O
  O3446      1.0000 0.74341  0.25659  0.44073  Biso   1.000  O
  O3447      1.0000 0.74341  0.25659  0.41582  Biso   1.000  O
  O3448      1.0000 0.75592  0.26910  0.40136  Biso   1.000  O
  O3449      1.0000 0.75147  0.26465  0.37829  Biso   1.000  O
  O3450      1.0000 0.75704  0.27022  0.30681  Biso   1.000  O
  O3451      1.0000 0.74341  0.25659  0.31585  Biso   1.000  O
  O3452      1.0000 0.74341  0.25659  0.34076  Biso   1.000  O
  O3453      1.0000 0.73090  0.24408  0.35522  Biso   1.000  O
  O3454      1.0000 0.73535  0.24853  0.37829  Biso   1.000  O
  O3455      1.0000 0.75704  0.27022  0.44977  Biso   1.000  O
  O3456      1.0000 0.73090  0.24408  0.40136  Biso   1.000  O
  O3457      1.0000 0.72044  0.23362  0.40603  Biso   1.000  O
  O3458      1.0000 0.72978  0.24296  0.30681  Biso   1.000  O
  O3459      1.0000 0.75592  0.26910  0.35522  Biso   1.000  O
  O3460      1.0000 0.76638  0.27956  0.35055  Biso   1.000  O
  O3461      1.0000 0.76209  0.27527  0.48131  Biso   1.000  O
  O3462      1.0000 0.79364  0.27022  0.48637  Biso   1.000  O
  O3463      1.0000 0.80268  0.25659  0.50000  Biso   1.000  O
  O3464      1.0000 0.82758  0.25659  0.50000  Biso   1.000  O
  O3465      1.0000 0.84204  0.24408  0.51251  Biso   1.000  O
  O3466      1.0000 0.79364  0.24296  0.51362  Biso   1.000  O
  O3467      1.0000 0.84204  0.26910  0.48748  Biso   1.000  O
  O3468      1.0000 0.83737  0.27956  0.47703  Biso   1.000  O
  O3469      1.0000 0.76209  0.23791  0.51868  Biso   1.000  O
  O3470      1.0000 0.75704  0.20637  0.51362  Biso   1.000  O
  O3471      1.0000 0.74341  0.19732  0.50000  Biso   1.000  O
  O3472      1.0000 0.74341  0.17242  0.50000  Biso   1.000  O
  O3473      1.0000 0.73090  0.15796  0.48748  Biso   1.000  O
  O3474      1.0000 0.72978  0.20637  0.48637  Biso   1.000  O
  O3475      1.0000 0.75592  0.15796  0.51251  Biso   1.000  O
  O3476      1.0000 0.76638  0.16263  0.52296  Biso   1.000  O
  O3477      1.0000 0.72473  0.23791  0.27527  Biso   1.000  O
  O3478      1.0000 0.72473  0.27527  0.51868  Biso   1.000  O
  O3479      1.0000 0.74341  0.25659  0.25659  Biso   1.000  O
  O3480      1.0000 0.72978  0.20637  0.27022  Biso   1.000  O
  O3481      1.0000 0.75704  0.24296  0.55022  Biso   1.000  O
  O3482      1.0000 0.69318  0.24296  0.27022  Biso   1.000  O
  O3483      1.0000 0.69318  0.24296  0.48637  Biso   1.000  O
  O3484      1.0000 0.75704  0.30682  0.48637  Biso   1.000  O
  O3485      1.0000 0.49194  0.13489  0.24853  Biso   1.000  O
  O3486      1.0000 0.48637  0.55023  0.24296  Biso   1.000  O
  O3487      1.0000 0.50000  0.55927  0.25659  Biso   1.000  O
  O3488      1.0000 0.50000  0.58417  0.25659  Biso   1.000  O
  O3489      1.0000 0.51251  0.59863  0.26910  Biso   1.000  O
  O3490      1.0000 0.50806  0.13489  0.26464  Biso   1.000  O
  O3491      1.0000 0.51363  0.55023  0.27022  Biso   1.000  O
  O3492      1.0000 0.48749  0.59863  0.24408  Biso   1.000  O
  O3493      1.0000 0.47703  0.59396  0.23362  Biso   1.000  O
  O3494      1.0000 0.50806  0.26465  0.13488  Biso   1.000  O
  O3495      1.0000 0.51363  0.27022  0.55022  Biso   1.000  O
  O3496      1.0000 0.50000  0.25659  0.55926  Biso   1.000  O
  O3497      1.0000 0.50000  0.25659  0.58417  Biso   1.000  O
  O3498      1.0000 0.48749  0.24408  0.59863  Biso   1.000  O
  O3499      1.0000 0.49194  0.24853  0.13488  Biso   1.000  O
  O3500      1.0000 0.48637  0.24296  0.55022  Biso   1.000  O
  O3501      1.0000 0.51251  0.26910  0.59863  Biso   1.000  O
  O3502      1.0000 0.52297  0.27956  0.59396  Biso   1.000  O
  O3503      1.0000 0.50000  0.25659  0.50000  Biso   1.000  O
  O3504      1.0000 0.48637  0.20637  0.51362  Biso   1.000  O
  O3505      1.0000 0.48132  0.23791  0.23790  Biso   1.000  O
  O3506      1.0000 0.50000  0.25659  0.25659  Biso   1.000  O
  O3507      1.0000 0.48637  0.24296  0.20636  Biso   1.000  O
  O3508      1.0000 0.50000  0.25659  0.19732  Biso   1.000  O
  O3509      1.0000 0.50000  0.25659  0.17241  Biso   1.000  O
  O3510      1.0000 0.51251  0.26910  0.15795  Biso   1.000  O
  O3511      1.0000 0.51363  0.27022  0.20636  Biso   1.000  O
  O3512      1.0000 0.48749  0.24408  0.15795  Biso   1.000  O
  O3513      1.0000 0.47703  0.23362  0.16262  Biso   1.000  O
  O3514      1.0000 0.51868  0.27527  0.23790  Biso   1.000  O
  O3515      1.0000 0.55023  0.27022  0.24296  Biso   1.000  O
  O3516      1.0000 0.55927  0.25659  0.25659  Biso   1.000  O
  O3517      1.0000 0.58417  0.25659  0.25659  Biso   1.000  O
  O3518      1.0000 0.59864  0.24408  0.26910  Biso   1.000  O
  O3519      1.0000 0.62171  0.24853  0.26464  Biso   1.000  O
  O3520      1.0000 0.68414  0.25659  0.25659  Biso   1.000  O
  O3521      1.0000 0.65924  0.25659  0.25659  Biso   1.000  O
  O3522      1.0000 0.64478  0.26910  0.24408  Biso   1.000  O
  O3523      1.0000 0.62171  0.26465  0.24853  Biso   1.000  O
  O3524      1.0000 0.55023  0.24296  0.27022  Biso   1.000  O
  O3525      1.0000 0.59864  0.26910  0.24408  Biso   1.000  O
  O3526      1.0000 0.59396  0.27956  0.23362  Biso   1.000  O
  O3527      1.0000 0.69318  0.27022  0.24296  Biso   1.000  O
  O3528      1.0000 0.64478  0.24408  0.26910  Biso   1.000  O
  O3529      1.0000 0.64945  0.23362  0.27956  Biso   1.000  O
  O3530      1.0000 0.51868  0.23791  0.27527  Biso   1.000  O
  O3531      1.0000 0.51363  0.20637  0.27022  Biso   1.000  O
  O3532      1.0000 0.50000  0.19732  0.25659  Biso   1.000  O
  O3533      1.0000 0.50000  0.17242  0.25659  Biso   1.000  O
  O3534      1.0000 0.48749  0.15796  0.24408  Biso   1.000  O
  O3535      1.0000 0.48637  0.20637  0.24296  Biso   1.000  O
  O3536      1.0000 0.51251  0.15796  0.26910  Biso   1.000  O
  O3537      1.0000 0.52297  0.16263  0.27956  Biso   1.000  O
  O3538      1.0000 0.48132  0.27527  0.27527  Biso   1.000  O
  O3539      1.0000 0.51363  0.24296  0.30681  Biso   1.000  O
  O3540      1.0000 0.44977  0.24296  0.24296  Biso   1.000  O
  O3541      1.0000 0.51363  0.30682  0.24296  Biso   1.000  O
  O3542      1.0000 0.76638  0.27956  0.40603  Biso   1.000  O
  O3543      1.0000 0.72044  0.23362  0.35055  Biso   1.000  O
  O3544      1.0000 0.68414  0.25659  0.50000  Biso   1.000  O
  O3545      1.0000 0.65924  0.25659  0.50000  Biso   1.000  O
  O3546      1.0000 0.64478  0.26910  0.51251  Biso   1.000  O
  O3547      1.0000 0.62171  0.26465  0.50805  Biso   1.000  O
  O3548      1.0000 0.55023  0.27022  0.51362  Biso   1.000  O
  O3549      1.0000 0.55927  0.25659  0.50000  Biso   1.000  O
  O3550      1.0000 0.58417  0.25659  0.50000  Biso   1.000  O
  O3551      1.0000 0.59864  0.24408  0.48748  Biso   1.000  O
  O3552      1.0000 0.62171  0.24853  0.49194  Biso   1.000  O
  O3553      1.0000 0.69318  0.27022  0.51362  Biso   1.000  O
  O3554      1.0000 0.64478  0.24408  0.48748  Biso   1.000  O
  O3555      1.0000 0.64945  0.23362  0.47703  Biso   1.000  O
  O3556      1.0000 0.55023  0.24296  0.48637  Biso   1.000  O
  O3557      1.0000 0.59864  0.26910  0.51251  Biso   1.000  O
  O3558      1.0000 0.59396  0.27956  0.52296  Biso   1.000  O
  O3559      1.0000 0.72978  0.30682  0.51362  Biso   1.000  O
  O3560      1.0000 0.74341  0.31586  0.50000  Biso   1.000  O
  O3561      1.0000 0.74341  0.34076  0.50000  Biso   1.000  O
  O3562      1.0000 0.75592  0.35523  0.48748  Biso   1.000  O
  O3563      1.0000 0.75147  0.37830  0.49194  Biso   1.000  O
  O3564      1.0000 0.75704  0.44977  0.48637  Biso   1.000  O
  O3565      1.0000 0.74341  0.44073  0.50000  Biso   1.000  O
  O3566      1.0000 0.74341  0.41583  0.50000  Biso   1.000  O
  O3567      1.0000 0.73090  0.40137  0.51251  Biso   1.000  O
  O3568      1.0000 0.73535  0.37830  0.50805  Biso   1.000  O
  O3569      1.0000 0.73090  0.35523  0.51251  Biso   1.000  O
  O3570      1.0000 0.72044  0.35056  0.52296  Biso   1.000  O
  O3571      1.0000 0.75592  0.40137  0.48748  Biso   1.000  O
  O3572      1.0000 0.76638  0.40604  0.47703  Biso   1.000  O
  O3573      1.0000 0.76209  0.48132  0.48131  Biso   1.000  O
  O3574      1.0000 0.51868  0.23791  0.48131  Biso   1.000  O
  O3575      1.0000 0.72978  0.27022  0.55022  Biso   1.000  O
  O3576      1.0000 0.79364  0.27022  0.27022  Biso   1.000  O
  O3577      1.0000 0.48637  0.27022  0.30681  Biso   1.000  O
  O3578      1.0000 0.50000  0.25659  0.31585  Biso   1.000  O
  O3579      1.0000 0.50000  0.25659  0.34076  Biso   1.000  O
  O3580      1.0000 0.51251  0.24408  0.35522  Biso   1.000  O
  O3581      1.0000 0.50806  0.24853  0.37829  Biso   1.000  O
  O3582      1.0000 0.51363  0.24296  0.44977  Biso   1.000  O
  O3583      1.0000 0.50000  0.25659  0.44073  Biso   1.000  O
  O3584      1.0000 0.50000  0.25659  0.41582  Biso   1.000  O
  O3585      1.0000 0.48749  0.26910  0.40136  Biso   1.000  O
  O3586      1.0000 0.49194  0.26465  0.37829  Biso   1.000  O
  O3587      1.0000 0.48749  0.26910  0.35522  Biso   1.000  O
  O3588      1.0000 0.47703  0.27956  0.35055  Biso   1.000  O
  O3589      1.0000 0.48637  0.27022  0.44977  Biso   1.000  O
  O3590      1.0000 0.51251  0.24408  0.40136  Biso   1.000  O
  O3591      1.0000 0.52297  0.23362  0.40603  Biso   1.000  O
  O3592      1.0000 0.59396  0.23362  0.27956  Biso   1.000  O
  O3593      1.0000 0.64945  0.27956  0.23362  Biso   1.000  O
  O3594      1.0000 0.50000  0.31586  0.25659  Biso   1.000  O
  O3595      1.0000 0.50000  0.34076  0.25659  Biso   1.000  O
  O3596      1.0000 0.48749  0.35523  0.26910  Biso   1.000  O
  O3597      1.0000 0.49194  0.37830  0.26464  Biso   1.000  O
  O3598      1.0000 0.50000  0.44073  0.25659  Biso   1.000  O
  O3599      1.0000 0.50000  0.41583  0.25659  Biso   1.000  O
  O3600      1.0000 0.51251  0.40137  0.24408  Biso   1.000  O
  O3601      1.0000 0.50806  0.37830  0.24853  Biso   1.000  O
  O3602      1.0000 0.48637  0.30682  0.27022  Biso   1.000  O
  O3603      1.0000 0.51251  0.35523  0.24408  Biso   1.000  O
  O3604      1.0000 0.52297  0.35056  0.23362  Biso   1.000  O
  O3605      1.0000 0.51363  0.44977  0.24296  Biso   1.000  O
  O3606      1.0000 0.48749  0.40137  0.26910  Biso   1.000  O
  O3607      1.0000 0.47703  0.40604  0.27956  Biso   1.000  O
  O3608      1.0000 0.51868  0.48132  0.23790  Biso   1.000  O
  O3609      1.0000 0.44977  0.27022  0.27022  Biso   1.000  O
  O3610      1.0000 0.52297  0.52297  0.40603  Biso   1.000  O
  O3611      1.0000 0.47703  0.47703  0.35055  Biso   1.000  O
  O3612      1.0000 0.44073  0.50000  0.50000  Biso   1.000  O
  O3613      1.0000 0.41583  0.50000  0.50000  Biso   1.000  O
  O3614      1.0000 0.40137  0.51251  0.51251  Biso   1.000  O
  O3615      1.0000 0.37830  0.50806  0.50805  Biso   1.000  O
  O3616      1.0000 0.37830  0.49194  0.49194  Biso   1.000  O
  O3617      1.0000 0.44977  0.51363  0.51362  Biso   1.000  O
  O3618      1.0000 0.40137  0.48749  0.48748  Biso   1.000  O
  O3619      1.0000 0.40604  0.47703  0.47703  Biso   1.000  O
  O3620      1.0000 0.48637  0.55023  0.51362  Biso   1.000  O
  O3621      1.0000 0.50000  0.55927  0.50000  Biso   1.000  O
  O3622      1.0000 0.50000  0.58417  0.50000  Biso   1.000  O
  O3623      1.0000 0.51251  0.59863  0.48748  Biso   1.000  O
  O3624      1.0000 0.50806  0.13489  0.49194  Biso   1.000  O
  O3625      1.0000 0.49194  0.13489  0.50805  Biso   1.000  O
  O3626      1.0000 0.48749  0.59863  0.51251  Biso   1.000  O
  O3627      1.0000 0.47703  0.59396  0.52297  Biso   1.000  O
  O3628      1.0000 0.48637  0.51363  0.55022  Biso   1.000  O
  O3629      1.0000 0.55023  0.51363  0.27022  Biso   1.000  O
  O3630      1.0000 0.79364  0.51363  0.51362  Biso   1.000  O
  O3631      1.0000 0.80268  0.50000  0.50000  Biso   1.000  O
  O3632      1.0000 0.82758  0.50000  0.50000  Biso   1.000  O
  O3633      1.0000 0.84204  0.48749  0.48748  Biso   1.000  O
  O3634      1.0000 0.79364  0.48637  0.48637  Biso   1.000  O
  O3635      1.0000 0.84204  0.51251  0.51251  Biso   1.000  O
  O3636      1.0000 0.83737  0.52297  0.52296  Biso   1.000  O
  O3637      1.0000 0.51363  0.20637  0.48637  Biso   1.000  O
  O3638      1.0000 0.50000  0.19732  0.50000  Biso   1.000  O
  O3639      1.0000 0.50000  0.17242  0.50000  Biso   1.000  O
  O3640      1.0000 0.48749  0.15796  0.51251  Biso   1.000  O
  O3641      1.0000 0.51251  0.15796  0.48748  Biso   1.000  O
  O3642      1.0000 0.52297  0.16263  0.47703  Biso   1.000  O
  O3643      1.0000 0.74341  0.50000  0.31585  Biso   1.000  O
  O3644      1.0000 0.74341  0.50000  0.34076  Biso   1.000  O
  O3645      1.0000 0.73090  0.51251  0.35522  Biso   1.000  O
  O3646      1.0000 0.73535  0.50806  0.37829  Biso   1.000  O
  O3647      1.0000 0.72978  0.51363  0.44977  Biso   1.000  O
  O3648      1.0000 0.74341  0.50000  0.44073  Biso   1.000  O
  O3649      1.0000 0.74341  0.50000  0.41582  Biso   1.000  O
  O3650      1.0000 0.75592  0.48749  0.40136  Biso   1.000  O
  O3651      1.0000 0.75147  0.49194  0.37829  Biso   1.000  O
  O3652      1.0000 0.72978  0.51363  0.30681  Biso   1.000  O
  O3653      1.0000 0.75592  0.48749  0.35522  Biso   1.000  O
  O3654      1.0000 0.76638  0.47703  0.35055  Biso   1.000  O
  O3655      1.0000 0.75704  0.48637  0.44977  Biso   1.000  O
  O3656      1.0000 0.73090  0.51251  0.40136  Biso   1.000  O
  O3657      1.0000 0.72044  0.52297  0.40603  Biso   1.000  O
  O3658      1.0000 0.69318  0.51363  0.27022  Biso   1.000  O
  O3659      1.0000 0.68414  0.50000  0.25659  Biso   1.000  O
  O3660      1.0000 0.65924  0.50000  0.25659  Biso   1.000  O
  O3661      1.0000 0.64478  0.48749  0.24408  Biso   1.000  O
  O3662      1.0000 0.62171  0.49194  0.24853  Biso   1.000  O
  O3663      1.0000 0.55023  0.48637  0.24296  Biso   1.000  O
  O3664      1.0000 0.55927  0.50000  0.25659  Biso   1.000  O
  O3665      1.0000 0.58417  0.50000  0.25659  Biso   1.000  O
  O3666      1.0000 0.59864  0.51251  0.26910  Biso   1.000  O
  O3667      1.0000 0.62171  0.50806  0.26464  Biso   1.000  O
  O3668      1.0000 0.64478  0.51251  0.26910  Biso   1.000  O
  O3669      1.0000 0.64945  0.52297  0.27956  Biso   1.000  O
  O3670      1.0000 0.59864  0.48749  0.24408  Biso   1.000  O
  O3671      1.0000 0.59396  0.47703  0.23362  Biso   1.000  O
  O3672      1.0000 0.72044  0.40604  0.23362  Biso   1.000  O
  O3673      1.0000 0.76638  0.35056  0.27956  Biso   1.000  O
  O3674      1.0000 0.72978  0.55023  0.27022  Biso   1.000  O
  O3675      1.0000 0.40604  0.52297  0.23362  Biso   1.000  O
  O3676      1.0000 0.72044  0.52297  0.35055  Biso   1.000  O
  O3677      1.0000 0.76638  0.47703  0.40603  Biso   1.000  O
  O3678      1.0000 0.83737  0.47703  0.27956  Biso   1.000  O
  O3679      1.0000 0.74341  0.55927  0.25659  Biso   1.000  O
  O3680      1.0000 0.74341  0.58417  0.25659  Biso   1.000  O
  O3681      1.0000 0.73090  0.59863  0.26910  Biso   1.000  O
  O3682      1.0000 0.73535  0.13489  0.26464  Biso   1.000  O
  O3683      1.0000 0.75147  0.13489  0.24853  Biso   1.000  O
  O3684      1.0000 0.75592  0.59863  0.24408  Biso   1.000  O
  O3685      1.0000 0.76638  0.59396  0.23362  Biso   1.000  O
  O3686      1.0000 0.74341  0.19732  0.25659  Biso   1.000  O
  O3687      1.0000 0.74341  0.17242  0.25659  Biso   1.000  O
  O3688      1.0000 0.75592  0.15796  0.24408  Biso   1.000  O
  O3689      1.0000 0.75704  0.20637  0.24296  Biso   1.000  O
  O3690      1.0000 0.73090  0.15796  0.26910  Biso   1.000  O
  O3691      1.0000 0.72044  0.16263  0.27956  Biso   1.000  O
  O3692      1.0000 0.76209  0.23791  0.23790  Biso   1.000  O
  O3693      1.0000 0.40604  0.27956  0.47703  Biso   1.000  O
  O3694      1.0000 0.74341  0.25659  0.55926  Biso   1.000  O
  O3695      1.0000 0.74341  0.25659  0.58417  Biso   1.000  O
  O3696      1.0000 0.75592  0.24408  0.59863  Biso   1.000  O
  O3697      1.0000 0.75147  0.24853  0.13488  Biso   1.000  O
  O3698      1.0000 0.73535  0.26465  0.13488  Biso   1.000  O
  O3699      1.0000 0.73090  0.26910  0.59863  Biso   1.000  O
  O3700      1.0000 0.72044  0.27956  0.59396  Biso   1.000  O
  O3701      1.0000 0.83737  0.23362  0.52296  Biso   1.000  O
  O3702      1.0000 0.76638  0.35056  0.47703  Biso   1.000  O
  O3703      1.0000 0.72044  0.40604  0.52296  Biso   1.000  O
  O3704      1.0000 0.75704  0.24296  0.20636  Biso   1.000  O
  O3705      1.0000 0.74341  0.25659  0.19732  Biso   1.000  O
  O3706      1.0000 0.74341  0.25659  0.17241  Biso   1.000  O
  O3707      1.0000 0.73090  0.26910  0.15795  Biso   1.000  O
  O3708      1.0000 0.72978  0.27022  0.20636  Biso   1.000  O
  O3709      1.0000 0.75592  0.24408  0.15795  Biso   1.000  O
  O3710      1.0000 0.76638  0.23362  0.16262  Biso   1.000  O
  O3711      1.0000 0.47703  0.23362  0.59396  Biso   1.000  O
  O3712      1.0000 0.52297  0.27956  0.16262  Biso   1.000  O
  O3713      1.0000 0.44073  0.25659  0.25659  Biso   1.000  O
  O3714      1.0000 0.41583  0.25659  0.25659  Biso   1.000  O
  O3715      1.0000 0.40137  0.26910  0.26910  Biso   1.000  O
  O3716      1.0000 0.37830  0.26465  0.26464  Biso   1.000  O
  O3717      1.0000 0.37830  0.24853  0.24853  Biso   1.000  O
  O3718      1.0000 0.40137  0.24408  0.24408  Biso   1.000  O
  O3719      1.0000 0.40604  0.23362  0.23362  Biso   1.000  O
  O3720      1.0000 0.47703  0.35056  0.27956  Biso   1.000  O
  O3721      1.0000 0.52297  0.40604  0.23362  Biso   1.000  O
  O3722      1.0000 0.80268  0.25659  0.25659  Biso   1.000  O
  O3723      1.0000 0.82758  0.25659  0.25659  Biso   1.000  O
  O3724      1.0000 0.84204  0.24408  0.24408  Biso   1.000  O
  O3725      1.0000 0.79364  0.24296  0.24296  Biso   1.000  O
  O3726      1.0000 0.84204  0.26910  0.26910  Biso   1.000  O
  O3727      1.0000 0.83737  0.27956  0.27956  Biso   1.000  O
  O3728      1.0000 0.72044  0.47703  0.59396  Biso   1.000  O
  O3729      1.0000 0.76638  0.52297  0.16262  Biso   1.000  O
  O3730      1.0000 0.64945  0.47703  0.23362  Biso   1.000  O
  O3731      1.0000 0.59396  0.52297  0.27956  Biso   1.000  O
  O3732      1.0000 0.72044  0.59396  0.27956  Biso   1.000  O
  O3733      1.0000 0.76638  0.16263  0.23362  Biso   1.000  O
  O3734      1.0000 0.76638  0.59396  0.52296  Biso   1.000  O
  O3735      1.0000 0.76638  0.23362  0.59396  Biso   1.000  O
  O3736      1.0000 0.64945  0.27956  0.52296  Biso   1.000  O
  O3737      1.0000 0.59396  0.23362  0.47703  Biso   1.000  O
  O3738      1.0000 0.72044  0.16263  0.47703  Biso   1.000  O
  O3739      1.0000 0.72044  0.27956  0.16262  Biso   1.000  O
  O3740      1.0000 0.52297  0.59396  0.27956  Biso   1.000  O
  O3741      1.0000 0.52297  0.23362  0.35055  Biso   1.000  O
  O3742      1.0000 0.47703  0.27956  0.40603  Biso   1.000  O
  O3743      1.0000 0.40604  0.27956  0.27956  Biso   1.000  O
  O3744      1.0000 0.47703  0.16263  0.23362  Biso   1.000  O
  O3745      1.0000 0.83737  0.23362  0.23362  Biso   1.000  O
  O3746      1.0000 0.50000  0.50000  0.55926  Biso   1.000  O
  O3747      1.0000 0.50000  0.50000  0.58417  Biso   1.000  O
  O3748      1.0000 0.51251  0.48749  0.59863  Biso   1.000  O
  O3749      1.0000 0.50806  0.49194  0.13488  Biso   1.000  O
  O3750      1.0000 0.49194  0.50806  0.13488  Biso   1.000  O
  O3751      1.0000 0.48749  0.51251  0.59863  Biso   1.000  O
  O3752      1.0000 0.47703  0.52297  0.59396  Biso   1.000  O
  O3753      1.0000 0.59396  0.47703  0.52296  Biso   1.000  O
  O3754      1.0000 0.64945  0.52297  0.47703  Biso   1.000  O
  O3755      1.0000 0.52297  0.59396  0.47703  Biso   1.000  O
  O3756      1.0000 0.51363  0.48637  0.20636  Biso   1.000  O
  O3757      1.0000 0.50000  0.50000  0.19732  Biso   1.000  O
  O3758      1.0000 0.50000  0.50000  0.17241  Biso   1.000  O
  O3759      1.0000 0.48749  0.51251  0.15795  Biso   1.000  O
  O3760      1.0000 0.48637  0.51363  0.20636  Biso   1.000  O
  O3761      1.0000 0.51251  0.48749  0.15795  Biso   1.000  O
  O3762      1.0000 0.52297  0.47703  0.16262  Biso   1.000  O
  O3763      1.0000 0.47703  0.16263  0.52296  Biso   1.000  O
  O3764      1.0000 0.52297  0.47703  0.59396  Biso   1.000  O
  O3765      1.0000 0.40604  0.52297  0.52297  Biso   1.000  O
  O3766      1.0000 0.47703  0.40604  0.47703  Biso   1.000  O
  O3767      1.0000 0.52297  0.35056  0.52296  Biso   1.000  O
  O3768      1.0000 0.83737  0.47703  0.47703  Biso   1.000  O
