data_image0
_cell_length_a       59.153
_cell_length_b       59.153
_cell_length_c       59.153
_cell_angle_alpha    90
_cell_angle_beta     90
_cell_angle_gamma    90

_symmetry_space_group_name_H-M    "P 1"
_symmetry_int_tables_number       1

loop_
  _symmetry_equiv_pos_as_xyz
  'x, y, z'

loop_
  _atom_site_label
  _atom_site_occupancy
  _atom_site_fract_x
  _atom_site_fract_y
  _atom_site_fract_z
  _atom_site_thermal_displace_type
  _atom_site_B_iso_or_equiv
  _atom_site_type_symbol
  Cu1      1.0000 0.00000  0.09537  0.09537  Biso   1.000  Cu
  Cu2      1.0000 0.90463  0.00000  0.09537  Biso   1.000  Cu
  Cu3      1.0000 0.00000  0.90463  0.09537  Biso   1.000  Cu
  Cu4      1.0000 0.09537  0.00000  0.09537  Biso   1.000  Cu
  Cu5      1.0000 0.00000  0.90463  0.90463  Biso   1.000  Cu
  Cu6      1.0000 0.00000  0.09537  0.90463  Biso   1.000  Cu
  Cu7      1.0000 0.09537  0.09537  0.00000  Biso   1.000  Cu
  Cu8      1.0000 0.90463  0.09537  0.00000  Biso   1.000  Cu
  Cu9      1.0000 0.90463  0.90463  0.00000  Biso   1.000  Cu
  Cu10     1.0000 0.09537  0.00000  0.90463  Biso   1.000  Cu
  Cu11     1.0000 0.90463  0.00000  0.90463  Biso   1.000  Cu
  Cu12     1.0000 0.09537  0.90463  0.00000  Biso   1.000  Cu
  Cu13     1.0000 0.00000  0.59537  0.59537  Biso   1.000  Cu
  Cu14     1.0000 0.90463  0.50000  0.59537  Biso   1.000  Cu
  Cu15     1.0000 0.00000  0.40463  0.59537  Biso   1.000  Cu
  Cu16     1.0000 0.09537  0.50000  0.59537  Biso   1.000  Cu
  Cu17     1.0000 0.00000  0.40463  0.40463  Biso   1.000  Cu
  Cu18     1.0000 0.00000  0.59537  0.40463  Biso   1.000  Cu
  Cu19     1.0000 0.09537  0.59537  0.50000  Biso   1.000  Cu
  Cu20     1.0000 0.90463  0.59537  0.50000  Biso   1.000  Cu
  Cu21     1.0000 0.90463  0.40463  0.50000  Biso   1.000  Cu
  Cu22     1.0000 0.09537  0.50000  0.40463  Biso   1.000  Cu
  Cu23     1.0000 0.90463  0.50000  0.40463  Biso   1.000  Cu
  Cu24     1.0000 0.09537  0.40463  0.50000  Biso   1.000  Cu
  Cu25     1.0000 0.50000  0.09537  0.59537  Biso   1.000  Cu
  Cu26     1.0000 0.40463  0.00000  0.59537  Biso   1.000  Cu
  Cu27     1.0000 0.50000  0.90463  0.59537  Biso   1.000  Cu
  Cu28     1.0000 0.59537  0.00000  0.59537  Biso   1.000  Cu
  Cu29     1.0000 0.50000  0.90463  0.40463  Biso   1.000  Cu
  Cu30     1.0000 0.50000  0.09537  0.40463  Biso   1.000  Cu
  Cu31     1.0000 0.59537  0.09537  0.50000  Biso   1.000  Cu
  Cu32     1.0000 0.40463  0.09537  0.50000  Biso   1.000  Cu
  Cu33     1.0000 0.40463  0.90463  0.50000  Biso   1.000  Cu
  Cu34     1.0000 0.59537  0.00000  0.40463  Biso   1.000  Cu
  Cu35     1.0000 0.40463  0.00000  0.40463  Biso   1.000  Cu
  Cu36     1.0000 0.59537  0.90463  0.50000  Biso   1.000  Cu
  Cu37     1.0000 0.50000  0.59537  0.09537  Biso   1.000  Cu
  Cu38     1.0000 0.40463  0.50000  0.09537  Biso   1.000  Cu
  Cu39     1.0000 0.50000  0.40463  0.09537  Biso   1.000  Cu
  Cu40     1.0000 0.59537  0.50000  0.09537  Biso   1.000  Cu
  Cu41     1.0000 0.50000  0.40463  0.90463  Biso   1.000  Cu
  Cu42     1.0000 0.50000  0.59537  0.90463  Biso   1.000  Cu
  Cu43     1.0000 0.59537  0.59537  0.00000  Biso   1.000  Cu
  Cu44     1.0000 0.40463  0.59537  0.00000  Biso   1.000  Cu
  Cu45     1.0000 0.40463  0.40463  0.00000  Biso   1.000  Cu
  Cu46     1.0000 0.59537  0.50000  0.90463  Biso   1.000  Cu
  Cu47     1.0000 0.40463  0.50000  0.90463  Biso   1.000  Cu
  Cu48     1.0000 0.59537  0.40463  0.00000  Biso   1.000  Cu
  Cu49     1.0000 0.00000  0.12700  0.12700  Biso   1.000  Cu
  Cu50     1.0000 0.87300  0.00000  0.12700  Biso   1.000  Cu
  Cu51     1.0000 0.00000  0.87300  0.12700  Biso   1.000  Cu
  Cu52     1.0000 0.12700  0.00000  0.12700  Biso   1.000  Cu
  Cu53     1.0000 0.00000  0.87300  0.87300  Biso   1.000  Cu
  Cu54     1.0000 0.00000  0.12700  0.87300  Biso   1.000  Cu
  Cu55     1.0000 0.12700  0.12700  0.00000  Biso   1.000  Cu
  Cu56     1.0000 0.87300  0.12700  0.00000  Biso   1.000  Cu
  Cu57     1.0000 0.87300  0.87300  0.00000  Biso   1.000  Cu
  Cu58     1.0000 0.12700  0.00000  0.87300  Biso   1.000  Cu
  Cu59     1.0000 0.87300  0.00000  0.87300  Biso   1.000  Cu
  Cu60     1.0000 0.12700  0.87300  0.00000  Biso   1.000  Cu
  Cu61     1.0000 0.00000  0.62700  0.62700  Biso   1.000  Cu
  Cu62     1.0000 0.87300  0.50000  0.62700  Biso   1.000  Cu
  Cu63     1.0000 0.00000  0.37300  0.62700  Biso   1.000  Cu
  Cu64     1.0000 0.12700  0.50000  0.62700  Biso   1.000  Cu
  Cu65     1.0000 0.00000  0.37300  0.37300  Biso   1.000  Cu
  Cu66     1.0000 0.00000  0.62700  0.37300  Biso   1.000  Cu
  Cu67     1.0000 0.12700  0.62700  0.50000  Biso   1.000  Cu
  Cu68     1.0000 0.87300  0.62700  0.50000  Biso   1.000  Cu
  Cu69     1.0000 0.87300  0.37300  0.50000  Biso   1.000  Cu
  Cu70     1.0000 0.12700  0.50000  0.37300  Biso   1.000  Cu
  Cu71     1.0000 0.87300  0.50000  0.37300  Biso   1.000  Cu
  Cu72     1.0000 0.12700  0.37300  0.50000  Biso   1.000  Cu
  Cu73     1.0000 0.50000  0.12700  0.62700  Biso   1.000  Cu
  Cu74     1.0000 0.37300  0.00000  0.62700  Biso   1.000  Cu
  Cu75     1.0000 0.50000  0.87300  0.62700  Biso   1.000  Cu
  Cu76     1.0000 0.62700  0.00000  0.62700  Biso   1.000  Cu
  Cu77     1.0000 0.50000  0.87300  0.37300  Biso   1.000  Cu
  Cu78     1.0000 0.50000  0.12700  0.37300  Biso   1.000  Cu
  Cu79     1.0000 0.62700  0.12700  0.50000  Biso   1.000  Cu
  Cu80     1.0000 0.37300  0.12700  0.50000  Biso   1.000  Cu
  Cu81     1.0000 0.37300  0.87300  0.50000  Biso   1.000  Cu
  Cu82     1.0000 0.62700  0.00000  0.37300  Biso   1.000  Cu
  Cu83     1.0000 0.37300  0.00000  0.37300  Biso   1.000  Cu
  Cu84     1.0000 0.62700  0.87300  0.50000  Biso   1.000  Cu
  Cu85     1.0000 0.50000  0.62700  0.12700  Biso   1.000  Cu
  Cu86     1.0000 0.37300  0.50000  0.12700  Biso   1.000  Cu
  Cu87     1.0000 0.50000  0.37300  0.12700  Biso   1.000  Cu
  Cu88     1.0000 0.62700  0.50000  0.12700  Biso   1.000  Cu
  Cu89     1.0000 0.50000  0.37300  0.87300  Biso   1.000  Cu
  Cu90     1.0000 0.50000  0.62700  0.87300  Biso   1.000  Cu
  Cu91     1.0000 0.62700  0.62700  0.00000  Biso   1.000  Cu
  Cu92     1.0000 0.37300  0.62700  0.00000  Biso   1.000  Cu
  Cu93     1.0000 0.37300  0.37300  0.00000  Biso   1.000  Cu
  Cu94     1.0000 0.62700  0.50000  0.87300  Biso   1.000  Cu
  Cu95     1.0000 0.37300  0.50000  0.87300  Biso   1.000  Cu
  Cu96     1.0000 0.62700  0.37300  0.00000  Biso   1.000  Cu
  O1       1.0000 0.02320  0.08177  0.11390  Biso   1.000  O
  O2       1.0000 0.91823  0.02320  0.11390  Biso   1.000  O
  O3       1.0000 0.97680  0.91823  0.11390  Biso   1.000  O
  O4       1.0000 0.08177  0.97680  0.11390  Biso   1.000  O
  O5       1.0000 0.02320  0.88610  0.08177  Biso   1.000  O
  O6       1.0000 0.02320  0.91823  0.88610  Biso   1.000  O
  O7       1.0000 0.02320  0.11390  0.91823  Biso   1.000  O
  O8       1.0000 0.11390  0.08177  0.97680  Biso   1.000  O
  O9       1.0000 0.97680  0.08177  0.88610  Biso   1.000  O
  O10      1.0000 0.88610  0.08177  0.02320  Biso   1.000  O
  O11      1.0000 0.11390  0.02320  0.08177  Biso   1.000  O
  O12      1.0000 0.08177  0.11390  0.02320  Biso   1.000  O
  O13      1.0000 0.91823  0.88610  0.02320  Biso   1.000  O
  O14      1.0000 0.11390  0.97680  0.91823  Biso   1.000  O
  O15      1.0000 0.91823  0.11390  0.97680  Biso   1.000  O
  O16      1.0000 0.88610  0.97680  0.08177  Biso   1.000  O
  O17      1.0000 0.88610  0.02320  0.91823  Biso   1.000  O
  O18      1.0000 0.08177  0.88610  0.97680  Biso   1.000  O
  O19      1.0000 0.08177  0.02320  0.88610  Biso   1.000  O
  O20      1.0000 0.91823  0.97680  0.88610  Biso   1.000  O
  O21      1.0000 0.97680  0.11390  0.08177  Biso   1.000  O
  O22      1.0000 0.97680  0.88610  0.91823  Biso   1.000  O
  O23      1.0000 0.11390  0.91823  0.02320  Biso   1.000  O
  O24      1.0000 0.88610  0.91823  0.97680  Biso   1.000  O
  O25      1.0000 0.02320  0.58177  0.61390  Biso   1.000  O
  O26      1.0000 0.91823  0.52320  0.61390  Biso   1.000  O
  O27      1.0000 0.97680  0.41823  0.61390  Biso   1.000  O
  O28      1.0000 0.08177  0.47680  0.61390  Biso   1.000  O
  O29      1.0000 0.02320  0.38610  0.58177  Biso   1.000  O
  O30      1.0000 0.02320  0.41823  0.38610  Biso   1.000  O
  O31      1.0000 0.02320  0.61390  0.41823  Biso   1.000  O
  O32      1.0000 0.11390  0.58177  0.47680  Biso   1.000  O
  O33      1.0000 0.97680  0.58177  0.38610  Biso   1.000  O
  O34      1.0000 0.88610  0.58177  0.52320  Biso   1.000  O
  O35      1.0000 0.11390  0.52320  0.58177  Biso   1.000  O
  O36      1.0000 0.08177  0.61390  0.52320  Biso   1.000  O
  O37      1.0000 0.91823  0.38610  0.52320  Biso   1.000  O
  O38      1.0000 0.11390  0.47680  0.41823  Biso   1.000  O
  O39      1.0000 0.91823  0.61390  0.47680  Biso   1.000  O
  O40      1.0000 0.88610  0.47680  0.58177  Biso   1.000  O
  O41      1.0000 0.88610  0.52320  0.41823  Biso   1.000  O
  O42      1.0000 0.08177  0.38610  0.47680  Biso   1.000  O
  O43      1.0000 0.08177  0.52320  0.38610  Biso   1.000  O
  O44      1.0000 0.91823  0.47680  0.38610  Biso   1.000  O
  O45      1.0000 0.97680  0.61390  0.58177  Biso   1.000  O
  O46      1.0000 0.97680  0.38610  0.41823  Biso   1.000  O
  O47      1.0000 0.11390  0.41823  0.52320  Biso   1.000  O
  O48      1.0000 0.88610  0.41823  0.47680  Biso   1.000  O
  O49      1.0000 0.52320  0.08177  0.61390  Biso   1.000  O
  O50      1.0000 0.41823  0.02320  0.61390  Biso   1.000  O
  O51      1.0000 0.47680  0.91823  0.61390  Biso   1.000  O
  O52      1.0000 0.58177  0.97680  0.61390  Biso   1.000  O
  O53      1.0000 0.52320  0.88610  0.58177  Biso   1.000  O
  O54      1.0000 0.52320  0.91823  0.38610  Biso   1.000  O
  O55      1.0000 0.52320  0.11390  0.41823  Biso   1.000  O
  O56      1.0000 0.61390  0.08177  0.47680  Biso   1.000  O
  O57      1.0000 0.47680  0.08177  0.38610  Biso   1.000  O
  O58      1.0000 0.38610  0.08177  0.52320  Biso   1.000  O
  O59      1.0000 0.61390  0.02320  0.58177  Biso   1.000  O
  O60      1.0000 0.58177  0.11390  0.52320  Biso   1.000  O
  O61      1.0000 0.41823  0.88610  0.52320  Biso   1.000  O
  O62      1.0000 0.61390  0.97680  0.41823  Biso   1.000  O
  O63      1.0000 0.41823  0.11390  0.47680  Biso   1.000  O
  O64      1.0000 0.38610  0.97680  0.58177  Biso   1.000  O
  O65      1.0000 0.38610  0.02320  0.41823  Biso   1.000  O
  O66      1.0000 0.58177  0.88610  0.47680  Biso   1.000  O
  O67      1.0000 0.58177  0.02320  0.38610  Biso   1.000  O
  O68      1.0000 0.41823  0.97680  0.38610  Biso   1.000  O
  O69      1.0000 0.47680  0.11390  0.58177  Biso   1.000  O
  O70      1.0000 0.47680  0.88610  0.41823  Biso   1.000  O
  O71      1.0000 0.61390  0.91823  0.52320  Biso   1.000  O
  O72      1.0000 0.38610  0.91823  0.47680  Biso   1.000  O
  O73      1.0000 0.52320  0.58177  0.11390  Biso   1.000  O
  O74      1.0000 0.41823  0.52320  0.11390  Biso   1.000  O
  O75      1.0000 0.47680  0.41823  0.11390  Biso   1.000  O
  O76      1.0000 0.58177  0.47680  0.11390  Biso   1.000  O
  O77      1.0000 0.52320  0.38610  0.08177  Biso   1.000  O
  O78      1.0000 0.52320  0.41823  0.88610  Biso   1.000  O
  O79      1.0000 0.52320  0.61390  0.91823  Biso   1.000  O
  O80      1.0000 0.61390  0.58177  0.97680  Biso   1.000  O
  O81      1.0000 0.47680  0.58177  0.88610  Biso   1.000  O
  O82      1.0000 0.38610  0.58177  0.02320  Biso   1.000  O
  O83      1.0000 0.61390  0.52320  0.08177  Biso   1.000  O
  O84      1.0000 0.58177  0.61390  0.02320  Biso   1.000  O
  O85      1.0000 0.41823  0.38610  0.02320  Biso   1.000  O
  O86      1.0000 0.61390  0.47680  0.91823  Biso   1.000  O
  O87      1.0000 0.41823  0.61390  0.97680  Biso   1.000  O
  O88      1.0000 0.38610  0.47680  0.08177  Biso   1.000  O
  O89      1.0000 0.38610  0.52320  0.91823  Biso   1.000  O
  O90      1.0000 0.58177  0.38610  0.97680  Biso   1.000  O
  O91      1.0000 0.58177  0.52320  0.88610  Biso   1.000  O
  O92      1.0000 0.41823  0.47680  0.88610  Biso   1.000  O
  O93      1.0000 0.47680  0.61390  0.08177  Biso   1.000  O
  O94      1.0000 0.47680  0.38610  0.91823  Biso   1.000  O
  O95      1.0000 0.61390  0.41823  0.02320  Biso   1.000  O
  O96      1.0000 0.38610  0.41823  0.97680  Biso   1.000  O
  O97      1.0000 0.97680  0.91823  0.88610  Biso   1.000  O
  O98      1.0000 0.08177  0.97680  0.88610  Biso   1.000  O
  O99      1.0000 0.02320  0.08177  0.88610  Biso   1.000  O
  O100     1.0000 0.91823  0.02320  0.88610  Biso   1.000  O
  O101     1.0000 0.97680  0.11390  0.91823  Biso   1.000  O
  O102     1.0000 0.97680  0.08177  0.11390  Biso   1.000  O
  O103     1.0000 0.97680  0.88610  0.08177  Biso   1.000  O
  O104     1.0000 0.88610  0.91823  0.02320  Biso   1.000  O
  O105     1.0000 0.02320  0.91823  0.11390  Biso   1.000  O
  O106     1.0000 0.11390  0.91823  0.97680  Biso   1.000  O
  O107     1.0000 0.88610  0.97680  0.91823  Biso   1.000  O
  O108     1.0000 0.91823  0.88610  0.97680  Biso   1.000  O
  O109     1.0000 0.08177  0.11390  0.97680  Biso   1.000  O
  O110     1.0000 0.88610  0.02320  0.08177  Biso   1.000  O
  O111     1.0000 0.08177  0.88610  0.02320  Biso   1.000  O
  O112     1.0000 0.11390  0.02320  0.91823  Biso   1.000  O
  O113     1.0000 0.11390  0.97680  0.08177  Biso   1.000  O
  O114     1.0000 0.91823  0.11390  0.02320  Biso   1.000  O
  O115     1.0000 0.91823  0.97680  0.11390  Biso   1.000  O
  O116     1.0000 0.08177  0.02320  0.11390  Biso   1.000  O
  O117     1.0000 0.02320  0.88610  0.91823  Biso   1.000  O
  O118     1.0000 0.02320  0.11390  0.08177  Biso   1.000  O
  O119     1.0000 0.88610  0.08177  0.97680  Biso   1.000  O
  O120     1.0000 0.11390  0.08177  0.02320  Biso   1.000  O
  O121     1.0000 0.97680  0.41823  0.38610  Biso   1.000  O
  O122     1.0000 0.08177  0.47680  0.38610  Biso   1.000  O
  O123     1.0000 0.02320  0.58177  0.38610  Biso   1.000  O
  O124     1.0000 0.91823  0.52320  0.38610  Biso   1.000  O
  O125     1.0000 0.97680  0.61390  0.41823  Biso   1.000  O
  O126     1.0000 0.97680  0.58177  0.61390  Biso   1.000  O
  O127     1.0000 0.97680  0.38610  0.58177  Biso   1.000  O
  O128     1.0000 0.88610  0.41823  0.52320  Biso   1.000  O
  O129     1.0000 0.02320  0.41823  0.61390  Biso   1.000  O
  O130     1.0000 0.11390  0.41823  0.47680  Biso   1.000  O
  O131     1.0000 0.88610  0.47680  0.41823  Biso   1.000  O
  O132     1.0000 0.91823  0.38610  0.47680  Biso   1.000  O
  O133     1.0000 0.08177  0.61390  0.47680  Biso   1.000  O
  O134     1.0000 0.88610  0.52320  0.58177  Biso   1.000  O
  O135     1.0000 0.08177  0.38610  0.52320  Biso   1.000  O
  O136     1.0000 0.11390  0.52320  0.41823  Biso   1.000  O
  O137     1.0000 0.11390  0.47680  0.58177  Biso   1.000  O
  O138     1.0000 0.91823  0.61390  0.52320  Biso   1.000  O
  O139     1.0000 0.91823  0.47680  0.61390  Biso   1.000  O
  O140     1.0000 0.08177  0.52320  0.61390  Biso   1.000  O
  O141     1.0000 0.02320  0.38610  0.41823  Biso   1.000  O
  O142     1.0000 0.02320  0.61390  0.58177  Biso   1.000  O
  O143     1.0000 0.88610  0.58177  0.47680  Biso   1.000  O
  O144     1.0000 0.11390  0.58177  0.52320  Biso   1.000  O
  O145     1.0000 0.47680  0.91823  0.38610  Biso   1.000  O
  O146     1.0000 0.58177  0.97680  0.38610  Biso   1.000  O
  O147     1.0000 0.52320  0.08177  0.38610  Biso   1.000  O
  O148     1.0000 0.41823  0.02320  0.38610  Biso   1.000  O
  O149     1.0000 0.47680  0.11390  0.41823  Biso   1.000  O
  O150     1.0000 0.47680  0.08177  0.61390  Biso   1.000  O
  O151     1.0000 0.47680  0.88610  0.58177  Biso   1.000  O
  O152     1.0000 0.38610  0.91823  0.52320  Biso   1.000  O
  O153     1.0000 0.52320  0.91823  0.61390  Biso   1.000  O
  O154     1.0000 0.61390  0.91823  0.47680  Biso   1.000  O
  O155     1.0000 0.38610  0.97680  0.41823  Biso   1.000  O
  O156     1.0000 0.41823  0.88610  0.47680  Biso   1.000  O
  O157     1.0000 0.58177  0.11390  0.47680  Biso   1.000  O
  O158     1.0000 0.38610  0.02320  0.58177  Biso   1.000  O
  O159     1.0000 0.58177  0.88610  0.52320  Biso   1.000  O
  O160     1.0000 0.61390  0.02320  0.41823  Biso   1.000  O
  O161     1.0000 0.61390  0.97680  0.58177  Biso   1.000  O
  O162     1.0000 0.41823  0.11390  0.52320  Biso   1.000  O
  O163     1.0000 0.41823  0.97680  0.61390  Biso   1.000  O
  O164     1.0000 0.58177  0.02320  0.61390  Biso   1.000  O
  O165     1.0000 0.52320  0.88610  0.41823  Biso   1.000  O
  O166     1.0000 0.52320  0.11390  0.58177  Biso   1.000  O
  O167     1.0000 0.38610  0.08177  0.47680  Biso   1.000  O
  O168     1.0000 0.61390  0.08177  0.52320  Biso   1.000  O
  O169     1.0000 0.47680  0.41823  0.88610  Biso   1.000  O
  O170     1.0000 0.58177  0.47680  0.88610  Biso   1.000  O
  O171     1.0000 0.52320  0.58177  0.88610  Biso   1.000  O
  O172     1.0000 0.41823  0.52320  0.88610  Biso   1.000  O
  O173     1.0000 0.47680  0.61390  0.91823  Biso   1.000  O
  O174     1.0000 0.47680  0.58177  0.11390  Biso   1.000  O
  O175     1.0000 0.47680  0.38610  0.08177  Biso   1.000  O
  O176     1.0000 0.38610  0.41823  0.02320  Biso   1.000  O
  O177     1.0000 0.52320  0.41823  0.11390  Biso   1.000  O
  O178     1.0000 0.61390  0.41823  0.97680  Biso   1.000  O
  O179     1.0000 0.38610  0.47680  0.91823  Biso   1.000  O
  O180     1.0000 0.41823  0.38610  0.97680  Biso   1.000  O
  O181     1.0000 0.58177  0.61390  0.97680  Biso   1.000  O
  O182     1.0000 0.38610  0.52320  0.08177  Biso   1.000  O
  O183     1.0000 0.58177  0.38610  0.02320  Biso   1.000  O
  O184     1.0000 0.61390  0.52320  0.91823  Biso   1.000  O
  O185     1.0000 0.61390  0.47680  0.08177  Biso   1.000  O
  O186     1.0000 0.41823  0.61390  0.02320  Biso   1.000  O
  O187     1.0000 0.41823  0.47680  0.11390  Biso   1.000  O
  O188     1.0000 0.58177  0.52320  0.11390  Biso   1.000  O
  O189     1.0000 0.52320  0.38610  0.91823  Biso   1.000  O
  O190     1.0000 0.52320  0.61390  0.08177  Biso   1.000  O
  O191     1.0000 0.38610  0.58177  0.97680  Biso   1.000  O
  O192     1.0000 0.61390  0.58177  0.02320  Biso   1.000  O
  O193     1.0000 0.02290  0.10800  0.14090  Biso   1.000  O
  O194     1.0000 0.89200  0.02290  0.14090  Biso   1.000  O
  O195     1.0000 0.97710  0.89200  0.14090  Biso   1.000  O
  O196     1.0000 0.10800  0.97710  0.14090  Biso   1.000  O
  O197     1.0000 0.02290  0.85910  0.10800  Biso   1.000  O
  O198     1.0000 0.02290  0.89200  0.85910  Biso   1.000  O
  O199     1.0000 0.02290  0.14090  0.89200  Biso   1.000  O
  O200     1.0000 0.14090  0.10800  0.97710  Biso   1.000  O
  O201     1.0000 0.97710  0.10800  0.85910  Biso   1.000  O
  O202     1.0000 0.85910  0.10800  0.02290  Biso   1.000  O
  O203     1.0000 0.14090  0.02290  0.10800  Biso   1.000  O
  O204     1.0000 0.10800  0.14090  0.02290  Biso   1.000  O
  O205     1.0000 0.89200  0.85910  0.02290  Biso   1.000  O
  O206     1.0000 0.14090  0.97710  0.89200  Biso   1.000  O
  O207     1.0000 0.89200  0.14090  0.97710  Biso   1.000  O
  O208     1.0000 0.85910  0.97710  0.10800  Biso   1.000  O
  O209     1.0000 0.85910  0.02290  0.89200  Biso   1.000  O
  O210     1.0000 0.10800  0.85910  0.97710  Biso   1.000  O
  O211     1.0000 0.10800  0.02290  0.85910  Biso   1.000  O
  O212     1.0000 0.89200  0.97710  0.85910  Biso   1.000  O
  O213     1.0000 0.97710  0.14090  0.10800  Biso   1.000  O
  O214     1.0000 0.97710  0.85910  0.89200  Biso   1.000  O
  O215     1.0000 0.14090  0.89200  0.02290  Biso   1.000  O
  O216     1.0000 0.85910  0.89200  0.97710  Biso   1.000  O
  O217     1.0000 0.02290  0.60800  0.64090  Biso   1.000  O
  O218     1.0000 0.89200  0.52290  0.64090  Biso   1.000  O
  O219     1.0000 0.97710  0.39200  0.64090  Biso   1.000  O
  O220     1.0000 0.10800  0.47710  0.64090  Biso   1.000  O
  O221     1.0000 0.02290  0.35910  0.60800  Biso   1.000  O
  O222     1.0000 0.02290  0.39200  0.35910  Biso   1.000  O
  O223     1.0000 0.02290  0.64090  0.39200  Biso   1.000  O
  O224     1.0000 0.14090  0.60800  0.47710  Biso   1.000  O
  O225     1.0000 0.97710  0.60800  0.35910  Biso   1.000  O
  O226     1.0000 0.85910  0.60800  0.52290  Biso   1.000  O
  O227     1.0000 0.14090  0.52290  0.60800  Biso   1.000  O
  O228     1.0000 0.10800  0.64090  0.52290  Biso   1.000  O
  O229     1.0000 0.89200  0.35910  0.52290  Biso   1.000  O
  O230     1.0000 0.14090  0.47710  0.39200  Biso   1.000  O
  O231     1.0000 0.89200  0.64090  0.47710  Biso   1.000  O
  O232     1.0000 0.85910  0.47710  0.60800  Biso   1.000  O
  O233     1.0000 0.85910  0.52290  0.39200  Biso   1.000  O
  O234     1.0000 0.10800  0.35910  0.47710  Biso   1.000  O
  O235     1.0000 0.10800  0.52290  0.35910  Biso   1.000  O
  O236     1.0000 0.89200  0.47710  0.35910  Biso   1.000  O
  O237     1.0000 0.97710  0.64090  0.60800  Biso   1.000  O
  O238     1.0000 0.97710  0.35910  0.39200  Biso   1.000  O
  O239     1.0000 0.14090  0.39200  0.52290  Biso   1.000  O
  O240     1.0000 0.85910  0.39200  0.47710  Biso   1.000  O
  O241     1.0000 0.52290  0.10800  0.64090  Biso   1.000  O
  O242     1.0000 0.39200  0.02290  0.64090  Biso   1.000  O
  O243     1.0000 0.47710  0.89200  0.64090  Biso   1.000  O
  O244     1.0000 0.60800  0.97710  0.64090  Biso   1.000  O
  O245     1.0000 0.52290  0.85910  0.60800  Biso   1.000  O
  O246     1.0000 0.52290  0.89200  0.35910  Biso   1.000  O
  O247     1.0000 0.52290  0.14090  0.39200  Biso   1.000  O
  O248     1.0000 0.64090  0.10800  0.47710  Biso   1.000  O
  O249     1.0000 0.47710  0.10800  0.35910  Biso   1.000  O
  O250     1.0000 0.35910  0.10800  0.52290  Biso   1.000  O
  O251     1.0000 0.64090  0.02290  0.60800  Biso   1.000  O
  O252     1.0000 0.60800  0.14090  0.52290  Biso   1.000  O
  O253     1.0000 0.39200  0.85910  0.52290  Biso   1.000  O
  O254     1.0000 0.64090  0.97710  0.39200  Biso   1.000  O
  O255     1.0000 0.39200  0.14090  0.47710  Biso   1.000  O
  O256     1.0000 0.35910  0.97710  0.60800  Biso   1.000  O
  O257     1.0000 0.35910  0.02290  0.39200  Biso   1.000  O
  O258     1.0000 0.60800  0.85910  0.47710  Biso   1.000  O
  O259     1.0000 0.60800  0.02290  0.35910  Biso   1.000  O
  O260     1.0000 0.39200  0.97710  0.35910  Biso   1.000  O
  O261     1.0000 0.47710  0.14090  0.60800  Biso   1.000  O
  O262     1.0000 0.47710  0.85910  0.39200  Biso   1.000  O
  O263     1.0000 0.64090  0.89200  0.52290  Biso   1.000  O
  O264     1.0000 0.35910  0.89200  0.47710  Biso   1.000  O
  O265     1.0000 0.52290  0.60800  0.14090  Biso   1.000  O
  O266     1.0000 0.39200  0.52290  0.14090  Biso   1.000  O
  O267     1.0000 0.47710  0.39200  0.14090  Biso   1.000  O
  O268     1.0000 0.60800  0.47710  0.14090  Biso   1.000  O
  O269     1.0000 0.52290  0.35910  0.10800  Biso   1.000  O
  O270     1.0000 0.52290  0.39200  0.85910  Biso   1.000  O
  O271     1.0000 0.52290  0.64090  0.89200  Biso   1.000  O
  O272     1.0000 0.64090  0.60800  0.97710  Biso   1.000  O
  O273     1.0000 0.47710  0.60800  0.85910  Biso   1.000  O
  O274     1.0000 0.35910  0.60800  0.02290  Biso   1.000  O
  O275     1.0000 0.64090  0.52290  0.10800  Biso   1.000  O
  O276     1.0000 0.60800  0.64090  0.02290  Biso   1.000  O
  O277     1.0000 0.39200  0.35910  0.02290  Biso   1.000  O
  O278     1.0000 0.64090  0.47710  0.89200  Biso   1.000  O
  O279     1.0000 0.39200  0.64090  0.97710  Biso   1.000  O
  O280     1.0000 0.35910  0.47710  0.10800  Biso   1.000  O
  O281     1.0000 0.35910  0.52290  0.89200  Biso   1.000  O
  O282     1.0000 0.60800  0.35910  0.97710  Biso   1.000  O
  O283     1.0000 0.60800  0.52290  0.85910  Biso   1.000  O
  O284     1.0000 0.39200  0.47710  0.85910  Biso   1.000  O
  O285     1.0000 0.47710  0.64090  0.10800  Biso   1.000  O
  O286     1.0000 0.47710  0.35910  0.89200  Biso   1.000  O
  O287     1.0000 0.64090  0.39200  0.02290  Biso   1.000  O
  O288     1.0000 0.35910  0.39200  0.97710  Biso   1.000  O
  O289     1.0000 0.97710  0.89200  0.85910  Biso   1.000  O
  O290     1.0000 0.10800  0.97710  0.85910  Biso   1.000  O
  O291     1.0000 0.02290  0.10800  0.85910  Biso   1.000  O
  O292     1.0000 0.89200  0.02290  0.85910  Biso   1.000  O
  O293     1.0000 0.97710  0.14090  0.89200  Biso   1.000  O
  O294     1.0000 0.97710  0.10800  0.14090  Biso   1.000  O
  O295     1.0000 0.97710  0.85910  0.10800  Biso   1.000  O
  O296     1.0000 0.85910  0.89200  0.02290  Biso   1.000  O
  O297     1.0000 0.02290  0.89200  0.14090  Biso   1.000  O
  O298     1.0000 0.14090  0.89200  0.97710  Biso   1.000  O
  O299     1.0000 0.85910  0.97710  0.89200  Biso   1.000  O
  O300     1.0000 0.89200  0.85910  0.97710  Biso   1.000  O
  O301     1.0000 0.10800  0.14090  0.97710  Biso   1.000  O
  O302     1.0000 0.85910  0.02290  0.10800  Biso   1.000  O
  O303     1.0000 0.10800  0.85910  0.02290  Biso   1.000  O
  O304     1.0000 0.14090  0.02290  0.89200  Biso   1.000  O
  O305     1.0000 0.14090  0.97710  0.10800  Biso   1.000  O
  O306     1.0000 0.89200  0.14090  0.02290  Biso   1.000  O
  O307     1.0000 0.89200  0.97710  0.14090  Biso   1.000  O
  O308     1.0000 0.10800  0.02290  0.14090  Biso   1.000  O
  O309     1.0000 0.02290  0.85910  0.89200  Biso   1.000  O
  O310     1.0000 0.02290  0.14090  0.10800  Biso   1.000  O
  O311     1.0000 0.85910  0.10800  0.97710  Biso   1.000  O
  O312     1.0000 0.14090  0.10800  0.02290  Biso   1.000  O
  O313     1.0000 0.97710  0.39200  0.35910  Biso   1.000  O
  O314     1.0000 0.10800  0.47710  0.35910  Biso   1.000  O
  O315     1.0000 0.02290  0.60800  0.35910  Biso   1.000  O
  O316     1.0000 0.89200  0.52290  0.35910  Biso   1.000  O
  O317     1.0000 0.97710  0.64090  0.39200  Biso   1.000  O
  O318     1.0000 0.97710  0.60800  0.64090  Biso   1.000  O
  O319     1.0000 0.97710  0.35910  0.60800  Biso   1.000  O
  O320     1.0000 0.85910  0.39200  0.52290  Biso   1.000  O
  O321     1.0000 0.02290  0.39200  0.64090  Biso   1.000  O
  O322     1.0000 0.14090  0.39200  0.47710  Biso   1.000  O
  O323     1.0000 0.85910  0.47710  0.39200  Biso   1.000  O
  O324     1.0000 0.89200  0.35910  0.47710  Biso   1.000  O
  O325     1.0000 0.10800  0.64090  0.47710  Biso   1.000  O
  O326     1.0000 0.85910  0.52290  0.60800  Biso   1.000  O
  O327     1.0000 0.10800  0.35910  0.52290  Biso   1.000  O
  O328     1.0000 0.14090  0.52290  0.39200  Biso   1.000  O
  O329     1.0000 0.14090  0.47710  0.60800  Biso   1.000  O
  O330     1.0000 0.89200  0.64090  0.52290  Biso   1.000  O
  O331     1.0000 0.89200  0.47710  0.64090  Biso   1.000  O
  O332     1.0000 0.10800  0.52290  0.64090  Biso   1.000  O
  O333     1.0000 0.02290  0.35910  0.39200  Biso   1.000  O
  O334     1.0000 0.02290  0.64090  0.60800  Biso   1.000  O
  O335     1.0000 0.85910  0.60800  0.47710  Biso   1.000  O
  O336     1.0000 0.14090  0.60800  0.52290  Biso   1.000  O
  O337     1.0000 0.47710  0.89200  0.35910  Biso   1.000  O
  O338     1.0000 0.60800  0.97710  0.35910  Biso   1.000  O
  O339     1.0000 0.52290  0.10800  0.35910  Biso   1.000  O
  O340     1.0000 0.39200  0.02290  0.35910  Biso   1.000  O
  O341     1.0000 0.47710  0.14090  0.39200  Biso   1.000  O
  O342     1.0000 0.47710  0.10800  0.64090  Biso   1.000  O
  O343     1.0000 0.47710  0.85910  0.60800  Biso   1.000  O
  O344     1.0000 0.35910  0.89200  0.52290  Biso   1.000  O
  O345     1.0000 0.52290  0.89200  0.64090  Biso   1.000  O
  O346     1.0000 0.64090  0.89200  0.47710  Biso   1.000  O
  O347     1.0000 0.35910  0.97710  0.39200  Biso   1.000  O
  O348     1.0000 0.39200  0.85910  0.47710  Biso   1.000  O
  O349     1.0000 0.60800  0.14090  0.47710  Biso   1.000  O
  O350     1.0000 0.35910  0.02290  0.60800  Biso   1.000  O
  O351     1.0000 0.60800  0.85910  0.52290  Biso   1.000  O
  O352     1.0000 0.64090  0.02290  0.39200  Biso   1.000  O
  O353     1.0000 0.64090  0.97710  0.60800  Biso   1.000  O
  O354     1.0000 0.39200  0.14090  0.52290  Biso   1.000  O
  O355     1.0000 0.39200  0.97710  0.64090  Biso   1.000  O
  O356     1.0000 0.60800  0.02290  0.64090  Biso   1.000  O
  O357     1.0000 0.52290  0.85910  0.39200  Biso   1.000  O
  O358     1.0000 0.52290  0.14090  0.60800  Biso   1.000  O
  O359     1.0000 0.35910  0.10800  0.47710  Biso   1.000  O
  O360     1.0000 0.64090  0.10800  0.52290  Biso   1.000  O
  O361     1.0000 0.47710  0.39200  0.85910  Biso   1.000  O
  O362     1.0000 0.60800  0.47710  0.85910  Biso   1.000  O
  O363     1.0000 0.52290  0.60800  0.85910  Biso   1.000  O
  O364     1.0000 0.39200  0.52290  0.85910  Biso   1.000  O
  O365     1.0000 0.47710  0.64090  0.89200  Biso   1.000  O
  O366     1.0000 0.47710  0.60800  0.14090  Biso   1.000  O
  O367     1.0000 0.47710  0.35910  0.10800  Biso   1.000  O
  O368     1.0000 0.35910  0.39200  0.02290  Biso   1.000  O
  O369     1.0000 0.52290  0.39200  0.14090  Biso   1.000  O
  O370     1.0000 0.64090  0.39200  0.97710  Biso   1.000  O
  O371     1.0000 0.35910  0.47710  0.89200  Biso   1.000  O
  O372     1.0000 0.39200  0.35910  0.97710  Biso   1.000  O
  O373     1.0000 0.60800  0.64090  0.97710  Biso   1.000  O
  O374     1.0000 0.35910  0.52290  0.10800  Biso   1.000  O
  O375     1.0000 0.60800  0.35910  0.02290  Biso   1.000  O
  O376     1.0000 0.64090  0.52290  0.89200  Biso   1.000  O
  O377     1.0000 0.64090  0.47710  0.10800  Biso   1.000  O
  O378     1.0000 0.39200  0.64090  0.02290  Biso   1.000  O
  O379     1.0000 0.39200  0.47710  0.14090  Biso   1.000  O
  O380     1.0000 0.60800  0.52290  0.14090  Biso   1.000  O
  O381     1.0000 0.52290  0.35910  0.89200  Biso   1.000  O
  O382     1.0000 0.52290  0.64090  0.10800  Biso   1.000  O
  O383     1.0000 0.35910  0.60800  0.97710  Biso   1.000  O
  O384     1.0000 0.64090  0.60800  0.02290  Biso   1.000  O
  O385     1.0000 0.00000  0.06870  0.06870  Biso   1.000  O
  O386     1.0000 0.93130  0.00000  0.06870  Biso   1.000  O
  O387     1.0000 0.00000  0.93130  0.06870  Biso   1.000  O
  O388     1.0000 0.06870  0.00000  0.06870  Biso   1.000  O
  O389     1.0000 0.00000  0.93130  0.93130  Biso   1.000  O
  O390     1.0000 0.00000  0.06870  0.93130  Biso   1.000  O
  O391     1.0000 0.06870  0.06870  0.00000  Biso   1.000  O
  O392     1.0000 0.93130  0.06870  0.00000  Biso   1.000  O
  O393     1.0000 0.93130  0.93130  0.00000  Biso   1.000  O
  O394     1.0000 0.06870  0.00000  0.93130  Biso   1.000  O
  O395     1.0000 0.93130  0.00000  0.93130  Biso   1.000  O
  O396     1.0000 0.06870  0.93130  0.00000  Biso   1.000  O
  O397     1.0000 0.00000  0.56870  0.56870  Biso   1.000  O
  O398     1.0000 0.93130  0.50000  0.56870  Biso   1.000  O
  O399     1.0000 0.00000  0.43130  0.56870  Biso   1.000  O
  O400     1.0000 0.06870  0.50000  0.56870  Biso   1.000  O
  O401     1.0000 0.00000  0.43130  0.43130  Biso   1.000  O
  O402     1.0000 0.00000  0.56870  0.43130  Biso   1.000  O
  O403     1.0000 0.06870  0.56870  0.50000  Biso   1.000  O
  O404     1.0000 0.93130  0.56870  0.50000  Biso   1.000  O
  O405     1.0000 0.93130  0.43130  0.50000  Biso   1.000  O
  O406     1.0000 0.06870  0.50000  0.43130  Biso   1.000  O
  O407     1.0000 0.93130  0.50000  0.43130  Biso   1.000  O
  O408     1.0000 0.06870  0.43130  0.50000  Biso   1.000  O
  O409     1.0000 0.50000  0.06870  0.56870  Biso   1.000  O
  O410     1.0000 0.43130  0.00000  0.56870  Biso   1.000  O
  O411     1.0000 0.50000  0.93130  0.56870  Biso   1.000  O
  O412     1.0000 0.56870  0.00000  0.56870  Biso   1.000  O
  O413     1.0000 0.50000  0.93130  0.43130  Biso   1.000  O
  O414     1.0000 0.50000  0.06870  0.43130  Biso   1.000  O
  O415     1.0000 0.56870  0.06870  0.50000  Biso   1.000  O
  O416     1.0000 0.43130  0.06870  0.50000  Biso   1.000  O
  O417     1.0000 0.43130  0.93130  0.50000  Biso   1.000  O
  O418     1.0000 0.56870  0.00000  0.43130  Biso   1.000  O
  O419     1.0000 0.43130  0.00000  0.43130  Biso   1.000  O
  O420     1.0000 0.56870  0.93130  0.50000  Biso   1.000  O
  O421     1.0000 0.50000  0.56870  0.06870  Biso   1.000  O
  O422     1.0000 0.43130  0.50000  0.06870  Biso   1.000  O
  O423     1.0000 0.50000  0.43130  0.06870  Biso   1.000  O
  O424     1.0000 0.56870  0.50000  0.06870  Biso   1.000  O
  O425     1.0000 0.50000  0.43130  0.93130  Biso   1.000  O
  O426     1.0000 0.50000  0.56870  0.93130  Biso   1.000  O
  O427     1.0000 0.56870  0.56870  0.00000  Biso   1.000  O
  O428     1.0000 0.43130  0.56870  0.00000  Biso   1.000  O
  O429     1.0000 0.43130  0.43130  0.00000  Biso   1.000  O
  O430     1.0000 0.56870  0.50000  0.93130  Biso   1.000  O
  O431     1.0000 0.43130  0.50000  0.93130  Biso   1.000  O
  O432     1.0000 0.56870  0.43130  0.00000  Biso   1.000  O
  O433     1.0000 0.00000  0.15600  0.15600  Biso   1.000  O
  O434     1.0000 0.84400  0.00000  0.15600  Biso   1.000  O
  O435     1.0000 0.00000  0.84400  0.15600  Biso   1.000  O
  O436     1.0000 0.15600  0.00000  0.15600  Biso   1.000  O
  O437     1.0000 0.00000  0.84400  0.84400  Biso   1.000  O
  O438     1.0000 0.00000  0.15600  0.84400  Biso   1.000  O
  O439     1.0000 0.15600  0.15600  0.00000  Biso   1.000  O
  O440     1.0000 0.84400  0.15600  0.00000  Biso   1.000  O
  O441     1.0000 0.84400  0.84400  0.00000  Biso   1.000  O
  O442     1.0000 0.15600  0.00000  0.84400  Biso   1.000  O
  O443     1.0000 0.84400  0.00000  0.84400  Biso   1.000  O
  O444     1.0000 0.15600  0.84400  0.00000  Biso   1.000  O
  O445     1.0000 0.00000  0.65600  0.65600  Biso   1.000  O
  O446     1.0000 0.84400  0.50000  0.65600  Biso   1.000  O
  O447     1.0000 0.00000  0.34400  0.65600  Biso   1.000  O
  O448     1.0000 0.15600  0.50000  0.65600  Biso   1.000  O
  O449     1.0000 0.00000  0.34400  0.34400  Biso   1.000  O
  O450     1.0000 0.00000  0.65600  0.34400  Biso   1.000  O
  O451     1.0000 0.15600  0.65600  0.50000  Biso   1.000  O
  O452     1.0000 0.84400  0.65600  0.50000  Biso   1.000  O
  O453     1.0000 0.84400  0.34400  0.50000  Biso   1.000  O
  O454     1.0000 0.15600  0.50000  0.34400  Biso   1.000  O
  O455     1.0000 0.84400  0.50000  0.34400  Biso   1.000  O
  O456     1.0000 0.15600  0.34400  0.50000  Biso   1.000  O
  O457     1.0000 0.50000  0.15600  0.65600  Biso   1.000  O
  O458     1.0000 0.34400  0.00000  0.65600  Biso   1.000  O
  O459     1.0000 0.50000  0.84400  0.65600  Biso   1.000  O
  O460     1.0000 0.65600  0.00000  0.65600  Biso   1.000  O
  O461     1.0000 0.50000  0.84400  0.34400  Biso   1.000  O
  O462     1.0000 0.50000  0.15600  0.34400  Biso   1.000  O
  O463     1.0000 0.65600  0.15600  0.50000  Biso   1.000  O
  O464     1.0000 0.34400  0.15600  0.50000  Biso   1.000  O
  O465     1.0000 0.34400  0.84400  0.50000  Biso   1.000  O
  O466     1.0000 0.65600  0.00000  0.34400  Biso   1.000  O
  O467     1.0000 0.34400  0.00000  0.34400  Biso   1.000  O
  O468     1.0000 0.65600  0.84400  0.50000  Biso   1.000  O
  O469     1.0000 0.50000  0.65600  0.15600  Biso   1.000  O
  O470     1.0000 0.34400  0.50000  0.15600  Biso   1.000  O
  O471     1.0000 0.50000  0.34400  0.15600  Biso   1.000  O
  O472     1.0000 0.65600  0.50000  0.15600  Biso   1.000  O
  O473     1.0000 0.50000  0.34400  0.84400  Biso   1.000  O
  O474     1.0000 0.50000  0.65600  0.84400  Biso   1.000  O
  O475     1.0000 0.65600  0.65600  0.00000  Biso   1.000  O
  O476     1.0000 0.34400  0.65600  0.00000  Biso   1.000  O
  O477     1.0000 0.34400  0.34400  0.00000  Biso   1.000  O
  O478     1.0000 0.65600  0.50000  0.84400  Biso   1.000  O
  O479     1.0000 0.34400  0.50000  0.84400  Biso   1.000  O
  O480     1.0000 0.65600  0.34400  0.00000  Biso   1.000  O
  C1       1.0000 0.03050  0.09010  0.13170  Biso   1.000  C
  C2       1.0000 0.90990  0.03050  0.13170  Biso   1.000  C
  C3       1.0000 0.96950  0.90990  0.13170  Biso   1.000  C
  C4       1.0000 0.09010  0.96950  0.13170  Biso   1.000  C
  C5       1.0000 0.03050  0.86830  0.09010  Biso   1.000  C
  C6       1.0000 0.03050  0.90990  0.86830  Biso   1.000  C
  C7       1.0000 0.03050  0.13170  0.90990  Biso   1.000  C
  C8       1.0000 0.13170  0.09010  0.96950  Biso   1.000  C
  C9       1.0000 0.96950  0.09010  0.86830  Biso   1.000  C
  C10      1.0000 0.86830  0.09010  0.03050  Biso   1.000  C
  C11      1.0000 0.13170  0.03050  0.09010  Biso   1.000  C
  C12      1.0000 0.09010  0.13170  0.03050  Biso   1.000  C
  C13      1.0000 0.90990  0.86830  0.03050  Biso   1.000  C
  C14      1.0000 0.13170  0.96950  0.90990  Biso   1.000  C
  C15      1.0000 0.90990  0.13170  0.96950  Biso   1.000  C
  C16      1.0000 0.86830  0.96950  0.09010  Biso   1.000  C
  C17      1.0000 0.86830  0.03050  0.90990  Biso   1.000  C
  C18      1.0000 0.09010  0.86830  0.96950  Biso   1.000  C
  C19      1.0000 0.09010  0.03050  0.86830  Biso   1.000  C
  C20      1.0000 0.90990  0.96950  0.86830  Biso   1.000  C
  C21      1.0000 0.96950  0.13170  0.09010  Biso   1.000  C
  C22      1.0000 0.96950  0.86830  0.90990  Biso   1.000  C
  C23      1.0000 0.13170  0.90990  0.03050  Biso   1.000  C
  C24      1.0000 0.86830  0.90990  0.96950  Biso   1.000  C
  C25      1.0000 0.03050  0.59010  0.63170  Biso   1.000  C
  C26      1.0000 0.90990  0.53050  0.63170  Biso   1.000  C
  C27      1.0000 0.96950  0.40990  0.63170  Biso   1.000  C
  C28      1.0000 0.09010  0.46950  0.63170  Biso   1.000  C
  C29      1.0000 0.03050  0.36830  0.59010  Biso   1.000  C
  C30      1.0000 0.03050  0.40990  0.36830  Biso   1.000  C
  C31      1.0000 0.03050  0.63170  0.40990  Biso   1.000  C
  C32      1.0000 0.13170  0.59010  0.46950  Biso   1.000  C
  C33      1.0000 0.96950  0.59010  0.36830  Biso   1.000  C
  C34      1.0000 0.86830  0.59010  0.53050  Biso   1.000  C
  C35      1.0000 0.13170  0.53050  0.59010  Biso   1.000  C
  C36      1.0000 0.09010  0.63170  0.53050  Biso   1.000  C
  C37      1.0000 0.90990  0.36830  0.53050  Biso   1.000  C
  C38      1.0000 0.13170  0.46950  0.40990  Biso   1.000  C
  C39      1.0000 0.90990  0.63170  0.46950  Biso   1.000  C
  C40      1.0000 0.86830  0.46950  0.59010  Biso   1.000  C
  C41      1.0000 0.86830  0.53050  0.40990  Biso   1.000  C
  C42      1.0000 0.09010  0.36830  0.46950  Biso   1.000  C
  C43      1.0000 0.09010  0.53050  0.36830  Biso   1.000  C
  C44      1.0000 0.90990  0.46950  0.36830  Biso   1.000  C
  C45      1.0000 0.96950  0.63170  0.59010  Biso   1.000  C
  C46      1.0000 0.96950  0.36830  0.40990  Biso   1.000  C
  C47      1.0000 0.13170  0.40990  0.53050  Biso   1.000  C
  C48      1.0000 0.86830  0.40990  0.46950  Biso   1.000  C
  C49      1.0000 0.53050  0.09010  0.63170  Biso   1.000  C
  C50      1.0000 0.40990  0.03050  0.63170  Biso   1.000  C
  C51      1.0000 0.46950  0.90990  0.63170  Biso   1.000  C
  C52      1.0000 0.59010  0.96950  0.63170  Biso   1.000  C
  C53      1.0000 0.53050  0.86830  0.59010  Biso   1.000  C
  C54      1.0000 0.53050  0.90990  0.36830  Biso   1.000  C
  C55      1.0000 0.53050  0.13170  0.40990  Biso   1.000  C
  C56      1.0000 0.63170  0.09010  0.46950  Biso   1.000  C
  C57      1.0000 0.46950  0.09010  0.36830  Biso   1.000  C
  C58      1.0000 0.36830  0.09010  0.53050  Biso   1.000  C
  C59      1.0000 0.63170  0.03050  0.59010  Biso   1.000  C
  C60      1.0000 0.59010  0.13170  0.53050  Biso   1.000  C
  C61      1.0000 0.40990  0.86830  0.53050  Biso   1.000  C
  C62      1.0000 0.63170  0.96950  0.40990  Biso   1.000  C
  C63      1.0000 0.40990  0.13170  0.46950  Biso   1.000  C
  C64      1.0000 0.36830  0.96950  0.59010  Biso   1.000  C
  C65      1.0000 0.36830  0.03050  0.40990  Biso   1.000  C
  C66      1.0000 0.59010  0.86830  0.46950  Biso   1.000  C
  C67      1.0000 0.59010  0.03050  0.36830  Biso   1.000  C
  C68      1.0000 0.40990  0.96950  0.36830  Biso   1.000  C
  C69      1.0000 0.46950  0.13170  0.59010  Biso   1.000  C
  C70      1.0000 0.46950  0.86830  0.40990  Biso   1.000  C
  C71      1.0000 0.63170  0.90990  0.53050  Biso   1.000  C
  C72      1.0000 0.36830  0.90990  0.46950  Biso   1.000  C
  C73      1.0000 0.53050  0.59010  0.13170  Biso   1.000  C
  C74      1.0000 0.40990  0.53050  0.13170  Biso   1.000  C
  C75      1.0000 0.46950  0.40990  0.13170  Biso   1.000  C
  C76      1.0000 0.59010  0.46950  0.13170  Biso   1.000  C
  C77      1.0000 0.53050  0.36830  0.09010  Biso   1.000  C
  C78      1.0000 0.53050  0.40990  0.86830  Biso   1.000  C
  C79      1.0000 0.53050  0.63170  0.90990  Biso   1.000  C
  C80      1.0000 0.63170  0.59010  0.96950  Biso   1.000  C
  C81      1.0000 0.46950  0.59010  0.86830  Biso   1.000  C
  C82      1.0000 0.36830  0.59010  0.03050  Biso   1.000  C
  C83      1.0000 0.63170  0.53050  0.09010  Biso   1.000  C
  C84      1.0000 0.59010  0.63170  0.03050  Biso   1.000  C
  C85      1.0000 0.40990  0.36830  0.03050  Biso   1.000  C
  C86      1.0000 0.63170  0.46950  0.90990  Biso   1.000  C
  C87      1.0000 0.40990  0.63170  0.96950  Biso   1.000  C
  C88      1.0000 0.36830  0.46950  0.09010  Biso   1.000  C
  C89      1.0000 0.36830  0.53050  0.90990  Biso   1.000  C
  C90      1.0000 0.59010  0.36830  0.96950  Biso   1.000  C
  C91      1.0000 0.59010  0.53050  0.86830  Biso   1.000  C
  C92      1.0000 0.40990  0.46950  0.86830  Biso   1.000  C
  C93      1.0000 0.46950  0.63170  0.09010  Biso   1.000  C
  C94      1.0000 0.46950  0.36830  0.90990  Biso   1.000  C
  C95      1.0000 0.63170  0.40990  0.03050  Biso   1.000  C
  C96      1.0000 0.36830  0.40990  0.96950  Biso   1.000  C
  C97      1.0000 0.96950  0.90990  0.86830  Biso   1.000  C
  C98      1.0000 0.09010  0.96950  0.86830  Biso   1.000  C
  C99      1.0000 0.03050  0.09010  0.86830  Biso   1.000  C
  C100     1.0000 0.90990  0.03050  0.86830  Biso   1.000  C
  C101     1.0000 0.96950  0.13170  0.90990  Biso   1.000  C
  C102     1.0000 0.96950  0.09010  0.13170  Biso   1.000  C
  C103     1.0000 0.96950  0.86830  0.09010  Biso   1.000  C
  C104     1.0000 0.86830  0.90990  0.03050  Biso   1.000  C
  C105     1.0000 0.03050  0.90990  0.13170  Biso   1.000  C
  C106     1.0000 0.13170  0.90990  0.96950  Biso   1.000  C
  C107     1.0000 0.86830  0.96950  0.90990  Biso   1.000  C
  C108     1.0000 0.90990  0.86830  0.96950  Biso   1.000  C
  C109     1.0000 0.09010  0.13170  0.96950  Biso   1.000  C
  C110     1.0000 0.86830  0.03050  0.09010  Biso   1.000  C
  C111     1.0000 0.09010  0.86830  0.03050  Biso   1.000  C
  C112     1.0000 0.13170  0.03050  0.90990  Biso   1.000  C
  C113     1.0000 0.13170  0.96950  0.09010  Biso   1.000  C
  C114     1.0000 0.90990  0.13170  0.03050  Biso   1.000  C
  C115     1.0000 0.90990  0.96950  0.13170  Biso   1.000  C
  C116     1.0000 0.09010  0.03050  0.13170  Biso   1.000  C
  C117     1.0000 0.03050  0.86830  0.90990  Biso   1.000  C
  C118     1.0000 0.03050  0.13170  0.09010  Biso   1.000  C
  C119     1.0000 0.86830  0.09010  0.96950  Biso   1.000  C
  C120     1.0000 0.13170  0.09010  0.03050  Biso   1.000  C
  C121     1.0000 0.96950  0.40990  0.36830  Biso   1.000  C
  C122     1.0000 0.09010  0.46950  0.36830  Biso   1.000  C
  C123     1.0000 0.03050  0.59010  0.36830  Biso   1.000  C
  C124     1.0000 0.90990  0.53050  0.36830  Biso   1.000  C
  C125     1.0000 0.96950  0.63170  0.40990  Biso   1.000  C
  C126     1.0000 0.96950  0.59010  0.63170  Biso   1.000  C
  C127     1.0000 0.96950  0.36830  0.59010  Biso   1.000  C
  C128     1.0000 0.86830  0.40990  0.53050  Biso   1.000  C
  C129     1.0000 0.03050  0.40990  0.63170  Biso   1.000  C
  C130     1.0000 0.13170  0.40990  0.46950  Biso   1.000  C
  C131     1.0000 0.86830  0.46950  0.40990  Biso   1.000  C
  C132     1.0000 0.90990  0.36830  0.46950  Biso   1.000  C
  C133     1.0000 0.09010  0.63170  0.46950  Biso   1.000  C
  C134     1.0000 0.86830  0.53050  0.59010  Biso   1.000  C
  C135     1.0000 0.09010  0.36830  0.53050  Biso   1.000  C
  C136     1.0000 0.13170  0.53050  0.40990  Biso   1.000  C
  C137     1.0000 0.13170  0.46950  0.59010  Biso   1.000  C
  C138     1.0000 0.90990  0.63170  0.53050  Biso   1.000  C
  C139     1.0000 0.90990  0.46950  0.63170  Biso   1.000  C
  C140     1.0000 0.09010  0.53050  0.63170  Biso   1.000  C
  C141     1.0000 0.03050  0.36830  0.40990  Biso   1.000  C
  C142     1.0000 0.03050  0.63170  0.59010  Biso   1.000  C
  C143     1.0000 0.86830  0.59010  0.46950  Biso   1.000  C
  C144     1.0000 0.13170  0.59010  0.53050  Biso   1.000  C
  C145     1.0000 0.46950  0.90990  0.36830  Biso   1.000  C
  C146     1.0000 0.59010  0.96950  0.36830  Biso   1.000  C
  C147     1.0000 0.53050  0.09010  0.36830  Biso   1.000  C
  C148     1.0000 0.40990  0.03050  0.36830  Biso   1.000  C
  C149     1.0000 0.46950  0.13170  0.40990  Biso   1.000  C
  C150     1.0000 0.46950  0.09010  0.63170  Biso   1.000  C
  C151     1.0000 0.46950  0.86830  0.59010  Biso   1.000  C
  C152     1.0000 0.36830  0.90990  0.53050  Biso   1.000  C
  C153     1.0000 0.53050  0.90990  0.63170  Biso   1.000  C
  C154     1.0000 0.63170  0.90990  0.46950  Biso   1.000  C
  C155     1.0000 0.36830  0.96950  0.40990  Biso   1.000  C
  C156     1.0000 0.40990  0.86830  0.46950  Biso   1.000  C
  C157     1.0000 0.59010  0.13170  0.46950  Biso   1.000  C
  C158     1.0000 0.36830  0.03050  0.59010  Biso   1.000  C
  C159     1.0000 0.59010  0.86830  0.53050  Biso   1.000  C
  C160     1.0000 0.63170  0.03050  0.40990  Biso   1.000  C
  C161     1.0000 0.63170  0.96950  0.59010  Biso   1.000  C
  C162     1.0000 0.40990  0.13170  0.53050  Biso   1.000  C
  C163     1.0000 0.40990  0.96950  0.63170  Biso   1.000  C
  C164     1.0000 0.59010  0.03050  0.63170  Biso   1.000  C
  C165     1.0000 0.53050  0.86830  0.40990  Biso   1.000  C
  C166     1.0000 0.53050  0.13170  0.59010  Biso   1.000  C
  C167     1.0000 0.36830  0.09010  0.46950  Biso   1.000  C
  C168     1.0000 0.63170  0.09010  0.53050  Biso   1.000  C
  C169     1.0000 0.46950  0.40990  0.86830  Biso   1.000  C
  C170     1.0000 0.59010  0.46950  0.86830  Biso   1.000  C
  C171     1.0000 0.53050  0.59010  0.86830  Biso   1.000  C
  C172     1.0000 0.40990  0.53050  0.86830  Biso   1.000  C
  C173     1.0000 0.46950  0.63170  0.90990  Biso   1.000  C
  C174     1.0000 0.46950  0.59010  0.13170  Biso   1.000  C
  C175     1.0000 0.46950  0.36830  0.09010  Biso   1.000  C
  C176     1.0000 0.36830  0.40990  0.03050  Biso   1.000  C
  C177     1.0000 0.53050  0.40990  0.13170  Biso   1.000  C
  C178     1.0000 0.63170  0.40990  0.96950  Biso   1.000  C
  C179     1.0000 0.36830  0.46950  0.90990  Biso   1.000  C
  C180     1.0000 0.40990  0.36830  0.96950  Biso   1.000  C
  C181     1.0000 0.59010  0.63170  0.96950  Biso   1.000  C
  C182     1.0000 0.36830  0.53050  0.09010  Biso   1.000  C
  C183     1.0000 0.59010  0.36830  0.03050  Biso   1.000  C
  C184     1.0000 0.63170  0.53050  0.90990  Biso   1.000  C
  C185     1.0000 0.63170  0.46950  0.09010  Biso   1.000  C
  C186     1.0000 0.40990  0.63170  0.03050  Biso   1.000  C
  C187     1.0000 0.40990  0.46950  0.13170  Biso   1.000  C
  C188     1.0000 0.59010  0.53050  0.13170  Biso   1.000  C
  C189     1.0000 0.53050  0.36830  0.90990  Biso   1.000  C
  C190     1.0000 0.53050  0.63170  0.09010  Biso   1.000  C
  C191     1.0000 0.36830  0.59010  0.96950  Biso   1.000  C
  C192     1.0000 0.63170  0.59010  0.03050  Biso   1.000  C
  C193     1.0000 0.06030  0.06030  0.13320  Biso   1.000  C
  C194     1.0000 0.93970  0.06030  0.13320  Biso   1.000  C
  C195     1.0000 0.93970  0.93970  0.13320  Biso   1.000  C
  C196     1.0000 0.06030  0.93970  0.13320  Biso   1.000  C
  C197     1.0000 0.06030  0.86680  0.06030  Biso   1.000  C
  C198     1.0000 0.06030  0.93970  0.86680  Biso   1.000  C
  C199     1.0000 0.06030  0.13320  0.93970  Biso   1.000  C
  C200     1.0000 0.13320  0.06030  0.93970  Biso   1.000  C
  C201     1.0000 0.93970  0.06030  0.86680  Biso   1.000  C
  C202     1.0000 0.86680  0.06030  0.06030  Biso   1.000  C
  C203     1.0000 0.13320  0.06030  0.06030  Biso   1.000  C
  C204     1.0000 0.06030  0.13320  0.06030  Biso   1.000  C
  C205     1.0000 0.93970  0.86680  0.06030  Biso   1.000  C
  C206     1.0000 0.13320  0.93970  0.93970  Biso   1.000  C
  C207     1.0000 0.93970  0.13320  0.93970  Biso   1.000  C
  C208     1.0000 0.86680  0.93970  0.06030  Biso   1.000  C
  C209     1.0000 0.86680  0.06030  0.93970  Biso   1.000  C
  C210     1.0000 0.06030  0.86680  0.93970  Biso   1.000  C
  C211     1.0000 0.06030  0.06030  0.86680  Biso   1.000  C
  C212     1.0000 0.93970  0.93970  0.86680  Biso   1.000  C
  C213     1.0000 0.93970  0.13320  0.06030  Biso   1.000  C
  C214     1.0000 0.93970  0.86680  0.93970  Biso   1.000  C
  C215     1.0000 0.13320  0.93970  0.06030  Biso   1.000  C
  C216     1.0000 0.86680  0.93970  0.93970  Biso   1.000  C
  C217     1.0000 0.06030  0.56030  0.63320  Biso   1.000  C
  C218     1.0000 0.93970  0.56030  0.63320  Biso   1.000  C
  C219     1.0000 0.93970  0.43970  0.63320  Biso   1.000  C
  C220     1.0000 0.06030  0.43970  0.63320  Biso   1.000  C
  C221     1.0000 0.06030  0.36680  0.56030  Biso   1.000  C
  C222     1.0000 0.06030  0.43970  0.36680  Biso   1.000  C
  C223     1.0000 0.06030  0.63320  0.43970  Biso   1.000  C
  C224     1.0000 0.13320  0.56030  0.43970  Biso   1.000  C
  C225     1.0000 0.93970  0.56030  0.36680  Biso   1.000  C
  C226     1.0000 0.86680  0.56030  0.56030  Biso   1.000  C
  C227     1.0000 0.13320  0.56030  0.56030  Biso   1.000  C
  C228     1.0000 0.06030  0.63320  0.56030  Biso   1.000  C
  C229     1.0000 0.93970  0.36680  0.56030  Biso   1.000  C
  C230     1.0000 0.13320  0.43970  0.43970  Biso   1.000  C
  C231     1.0000 0.93970  0.63320  0.43970  Biso   1.000  C
  C232     1.0000 0.86680  0.43970  0.56030  Biso   1.000  C
  C233     1.0000 0.86680  0.56030  0.43970  Biso   1.000  C
  C234     1.0000 0.06030  0.36680  0.43970  Biso   1.000  C
  C235     1.0000 0.06030  0.56030  0.36680  Biso   1.000  C
  C236     1.0000 0.93970  0.43970  0.36680  Biso   1.000  C
  C237     1.0000 0.93970  0.63320  0.56030  Biso   1.000  C
  C238     1.0000 0.93970  0.36680  0.43970  Biso   1.000  C
  C239     1.0000 0.13320  0.43970  0.56030  Biso   1.000  C
  C240     1.0000 0.86680  0.43970  0.43970  Biso   1.000  C
  C241     1.0000 0.56030  0.06030  0.63320  Biso   1.000  C
  C242     1.0000 0.43970  0.06030  0.63320  Biso   1.000  C
  C243     1.0000 0.43970  0.93970  0.63320  Biso   1.000  C
  C244     1.0000 0.56030  0.93970  0.63320  Biso   1.000  C
  C245     1.0000 0.56030  0.86680  0.56030  Biso   1.000  C
  C246     1.0000 0.56030  0.93970  0.36680  Biso   1.000  C
  C247     1.0000 0.56030  0.13320  0.43970  Biso   1.000  C
  C248     1.0000 0.63320  0.06030  0.43970  Biso   1.000  C
  C249     1.0000 0.43970  0.06030  0.36680  Biso   1.000  C
  C250     1.0000 0.36680  0.06030  0.56030  Biso   1.000  C
  C251     1.0000 0.63320  0.06030  0.56030  Biso   1.000  C
  C252     1.0000 0.56030  0.13320  0.56030  Biso   1.000  C
  C253     1.0000 0.43970  0.86680  0.56030  Biso   1.000  C
  C254     1.0000 0.63320  0.93970  0.43970  Biso   1.000  C
  C255     1.0000 0.43970  0.13320  0.43970  Biso   1.000  C
  C256     1.0000 0.36680  0.93970  0.56030  Biso   1.000  C
  C257     1.0000 0.36680  0.06030  0.43970  Biso   1.000  C
  C258     1.0000 0.56030  0.86680  0.43970  Biso   1.000  C
  C259     1.0000 0.56030  0.06030  0.36680  Biso   1.000  C
  C260     1.0000 0.43970  0.93970  0.36680  Biso   1.000  C
  C261     1.0000 0.43970  0.13320  0.56030  Biso   1.000  C
  C262     1.0000 0.43970  0.86680  0.43970  Biso   1.000  C
  C263     1.0000 0.63320  0.93970  0.56030  Biso   1.000  C
  C264     1.0000 0.36680  0.93970  0.43970  Biso   1.000  C
  C265     1.0000 0.56030  0.56030  0.13320  Biso   1.000  C
  C266     1.0000 0.43970  0.56030  0.13320  Biso   1.000  C
  C267     1.0000 0.43970  0.43970  0.13320  Biso   1.000  C
  C268     1.0000 0.56030  0.43970  0.13320  Biso   1.000  C
  C269     1.0000 0.56030  0.36680  0.06030  Biso   1.000  C
  C270     1.0000 0.56030  0.43970  0.86680  Biso   1.000  C
  C271     1.0000 0.56030  0.63320  0.93970  Biso   1.000  C
  C272     1.0000 0.63320  0.56030  0.93970  Biso   1.000  C
  C273     1.0000 0.43970  0.56030  0.86680  Biso   1.000  C
  C274     1.0000 0.36680  0.56030  0.06030  Biso   1.000  C
  C275     1.0000 0.63320  0.56030  0.06030  Biso   1.000  C
  C276     1.0000 0.56030  0.63320  0.06030  Biso   1.000  C
  C277     1.0000 0.43970  0.36680  0.06030  Biso   1.000  C
  C278     1.0000 0.63320  0.43970  0.93970  Biso   1.000  C
  C279     1.0000 0.43970  0.63320  0.93970  Biso   1.000  C
  C280     1.0000 0.36680  0.43970  0.06030  Biso   1.000  C
  C281     1.0000 0.36680  0.56030  0.93970  Biso   1.000  C
  C282     1.0000 0.56030  0.36680  0.93970  Biso   1.000  C
  C283     1.0000 0.56030  0.56030  0.86680  Biso   1.000  C
  C284     1.0000 0.43970  0.43970  0.86680  Biso   1.000  C
  C285     1.0000 0.43970  0.63320  0.06030  Biso   1.000  C
  C286     1.0000 0.43970  0.36680  0.93970  Biso   1.000  C
  C287     1.0000 0.63320  0.43970  0.06030  Biso   1.000  C
  C288     1.0000 0.36680  0.43970  0.93970  Biso   1.000  C
  H1       1.0000 0.05510  0.05510  0.11890  Biso   1.000  H
  H2       1.0000 0.94490  0.05510  0.11890  Biso   1.000  H
  H3       1.0000 0.94490  0.94490  0.11890  Biso   1.000  H
  H4       1.0000 0.05510  0.94490  0.11890  Biso   1.000  H
  H5       1.0000 0.05510  0.88110  0.05510  Biso   1.000  H
  H6       1.0000 0.05510  0.94490  0.88110  Biso   1.000  H
  H7       1.0000 0.05510  0.11890  0.94490  Biso   1.000  H
  H8       1.0000 0.11890  0.05510  0.94490  Biso   1.000  H
  H9       1.0000 0.94490  0.05510  0.88110  Biso   1.000  H
  H10      1.0000 0.88110  0.05510  0.05510  Biso   1.000  H
  H11      1.0000 0.11890  0.05510  0.05510  Biso   1.000  H
  H12      1.0000 0.05510  0.11890  0.05510  Biso   1.000  H
  H13      1.0000 0.94490  0.88110  0.05510  Biso   1.000  H
  H14      1.0000 0.11890  0.94490  0.94490  Biso   1.000  H
  H15      1.0000 0.94490  0.11890  0.94490  Biso   1.000  H
  H16      1.0000 0.88110  0.94490  0.05510  Biso   1.000  H
  H17      1.0000 0.88110  0.05510  0.94490  Biso   1.000  H
  H18      1.0000 0.05510  0.88110  0.94490  Biso   1.000  H
  H19      1.0000 0.05510  0.05510  0.88110  Biso   1.000  H
  H20      1.0000 0.94490  0.94490  0.88110  Biso   1.000  H
  H21      1.0000 0.94490  0.11890  0.05510  Biso   1.000  H
  H22      1.0000 0.94490  0.88110  0.94490  Biso   1.000  H
  H23      1.0000 0.11890  0.94490  0.05510  Biso   1.000  H
  H24      1.0000 0.88110  0.94490  0.94490  Biso   1.000  H
  H25      1.0000 0.05510  0.55510  0.61890  Biso   1.000  H
  H26      1.0000 0.94490  0.55510  0.61890  Biso   1.000  H
  H27      1.0000 0.94490  0.44490  0.61890  Biso   1.000  H
  H28      1.0000 0.05510  0.44490  0.61890  Biso   1.000  H
  H29      1.0000 0.05510  0.38110  0.55510  Biso   1.000  H
  H30      1.0000 0.05510  0.44490  0.38110  Biso   1.000  H
  H31      1.0000 0.05510  0.61890  0.44490  Biso   1.000  H
  H32      1.0000 0.11890  0.55510  0.44490  Biso   1.000  H
  H33      1.0000 0.94490  0.55510  0.38110  Biso   1.000  H
  H34      1.0000 0.88110  0.55510  0.55510  Biso   1.000  H
  H35      1.0000 0.11890  0.55510  0.55510  Biso   1.000  H
  H36      1.0000 0.05510  0.61890  0.55510  Biso   1.000  H
  H37      1.0000 0.94490  0.38110  0.55510  Biso   1.000  H
  H38      1.0000 0.11890  0.44490  0.44490  Biso   1.000  H
  H39      1.0000 0.94490  0.61890  0.44490  Biso   1.000  H
  H40      1.0000 0.88110  0.44490  0.55510  Biso   1.000  H
  H41      1.0000 0.88110  0.55510  0.44490  Biso   1.000  H
  H42      1.0000 0.05510  0.38110  0.44490  Biso   1.000  H
  H43      1.0000 0.05510  0.55510  0.38110  Biso   1.000  H
  H44      1.0000 0.94490  0.44490  0.38110  Biso   1.000  H
  H45      1.0000 0.94490  0.61890  0.55510  Biso   1.000  H
  H46      1.0000 0.94490  0.38110  0.44490  Biso   1.000  H
  H47      1.0000 0.11890  0.44490  0.55510  Biso   1.000  H
  H48      1.0000 0.88110  0.44490  0.44490  Biso   1.000  H
  H49      1.0000 0.55510  0.05510  0.61890  Biso   1.000  H
  H50      1.0000 0.44490  0.05510  0.61890  Biso   1.000  H
  H51      1.0000 0.44490  0.94490  0.61890  Biso   1.000  H
  H52      1.0000 0.55510  0.94490  0.61890  Biso   1.000  H
  H53      1.0000 0.55510  0.88110  0.55510  Biso   1.000  H
  H54      1.0000 0.55510  0.94490  0.38110  Biso   1.000  H
  H55      1.0000 0.55510  0.11890  0.44490  Biso   1.000  H
  H56      1.0000 0.61890  0.05510  0.44490  Biso   1.000  H
  H57      1.0000 0.44490  0.05510  0.38110  Biso   1.000  H
  H58      1.0000 0.38110  0.05510  0.55510  Biso   1.000  H
  H59      1.0000 0.61890  0.05510  0.55510  Biso   1.000  H
  H60      1.0000 0.55510  0.11890  0.55510  Biso   1.000  H
  H61      1.0000 0.44490  0.88110  0.55510  Biso   1.000  H
  H62      1.0000 0.61890  0.94490  0.44490  Biso   1.000  H
  H63      1.0000 0.44490  0.11890  0.44490  Biso   1.000  H
  H64      1.0000 0.38110  0.94490  0.55510  Biso   1.000  H
  H65      1.0000 0.38110  0.05510  0.44490  Biso   1.000  H
  H66      1.0000 0.55510  0.88110  0.44490  Biso   1.000  H
  H67      1.0000 0.55510  0.05510  0.38110  Biso   1.000  H
  H68      1.0000 0.44490  0.94490  0.38110  Biso   1.000  H
  H69      1.0000 0.44490  0.11890  0.55510  Biso   1.000  H
  H70      1.0000 0.44490  0.88110  0.44490  Biso   1.000  H
  H71      1.0000 0.61890  0.94490  0.55510  Biso   1.000  H
  H72      1.0000 0.38110  0.94490  0.44490  Biso   1.000  H
  H73      1.0000 0.55510  0.55510  0.11890  Biso   1.000  H
  H74      1.0000 0.44490  0.55510  0.11890  Biso   1.000  H
  H75      1.0000 0.44490  0.44490  0.11890  Biso   1.000  H
  H76      1.0000 0.55510  0.44490  0.11890  Biso   1.000  H
  H77      1.0000 0.55510  0.38110  0.05510  Biso   1.000  H
  H78      1.0000 0.55510  0.44490  0.88110  Biso   1.000  H
  H79      1.0000 0.55510  0.61890  0.94490  Biso   1.000  H
  H80      1.0000 0.61890  0.55510  0.94490  Biso   1.000  H
  H81      1.0000 0.44490  0.55510  0.88110  Biso   1.000  H
  H82      1.0000 0.38110  0.55510  0.05510  Biso   1.000  H
  H83      1.0000 0.61890  0.55510  0.05510  Biso   1.000  H
  H84      1.0000 0.55510  0.61890  0.05510  Biso   1.000  H
  H85      1.0000 0.44490  0.38110  0.05510  Biso   1.000  H
  H86      1.0000 0.61890  0.44490  0.94490  Biso   1.000  H
  H87      1.0000 0.44490  0.61890  0.94490  Biso   1.000  H
  H88      1.0000 0.38110  0.44490  0.05510  Biso   1.000  H
  H89      1.0000 0.38110  0.55510  0.94490  Biso   1.000  H
  H90      1.0000 0.55510  0.38110  0.94490  Biso   1.000  H
  H91      1.0000 0.55510  0.55510  0.88110  Biso   1.000  H
  H92      1.0000 0.44490  0.44490  0.88110  Biso   1.000  H
  H93      1.0000 0.44490  0.61890  0.05510  Biso   1.000  H
  H94      1.0000 0.44490  0.38110  0.94490  Biso   1.000  H
  H95      1.0000 0.61890  0.44490  0.05510  Biso   1.000  H
  H96      1.0000 0.38110  0.44490  0.94490  Biso   1.000  H
  C289     1.0000 0.04956  0.07829  0.14310  Biso   1.000  C
  C290     1.0000 0.92171  0.04956  0.14310  Biso   1.000  C
  C291     1.0000 0.95044  0.92171  0.14310  Biso   1.000  C
  C292     1.0000 0.07829  0.95044  0.14310  Biso   1.000  C
  C293     1.0000 0.04956  0.85690  0.07829  Biso   1.000  C
  C294     1.0000 0.04956  0.92171  0.85690  Biso   1.000  C
  C295     1.0000 0.04956  0.14310  0.92171  Biso   1.000  C
  C296     1.0000 0.14310  0.07829  0.95044  Biso   1.000  C
  C297     1.0000 0.95044  0.07829  0.85690  Biso   1.000  C
  C298     1.0000 0.85690  0.07829  0.04956  Biso   1.000  C
  C299     1.0000 0.14310  0.04956  0.07829  Biso   1.000  C
  C300     1.0000 0.07829  0.14310  0.04956  Biso   1.000  C
  C301     1.0000 0.92171  0.85690  0.04956  Biso   1.000  C
  C302     1.0000 0.14310  0.95044  0.92171  Biso   1.000  C
  C303     1.0000 0.92171  0.14310  0.95044  Biso   1.000  C
  C304     1.0000 0.85690  0.95044  0.07829  Biso   1.000  C
  C305     1.0000 0.85690  0.04956  0.92171  Biso   1.000  C
  C306     1.0000 0.07829  0.85690  0.95044  Biso   1.000  C
  C307     1.0000 0.07829  0.04956  0.85690  Biso   1.000  C
  C308     1.0000 0.92171  0.95044  0.85690  Biso   1.000  C
  C309     1.0000 0.95044  0.14310  0.07829  Biso   1.000  C
  C310     1.0000 0.95044  0.85690  0.92171  Biso   1.000  C
  C311     1.0000 0.14310  0.92171  0.04956  Biso   1.000  C
  C312     1.0000 0.85690  0.92171  0.95044  Biso   1.000  C
  C313     1.0000 0.04956  0.57829  0.64310  Biso   1.000  C
  C314     1.0000 0.92171  0.54956  0.64310  Biso   1.000  C
  C315     1.0000 0.95044  0.42171  0.64310  Biso   1.000  C
  C316     1.0000 0.07829  0.45044  0.64310  Biso   1.000  C
  C317     1.0000 0.04956  0.35690  0.57829  Biso   1.000  C
  C318     1.0000 0.04956  0.42171  0.35690  Biso   1.000  C
  C319     1.0000 0.04956  0.64310  0.42171  Biso   1.000  C
  C320     1.0000 0.14310  0.57829  0.45044  Biso   1.000  C
  C321     1.0000 0.95044  0.57829  0.35690  Biso   1.000  C
  C322     1.0000 0.85690  0.57829  0.54956  Biso   1.000  C
  C323     1.0000 0.14310  0.54956  0.57829  Biso   1.000  C
  C324     1.0000 0.07829  0.64310  0.54956  Biso   1.000  C
  C325     1.0000 0.92171  0.35690  0.54956  Biso   1.000  C
  C326     1.0000 0.14310  0.45044  0.42171  Biso   1.000  C
  C327     1.0000 0.92171  0.64310  0.45044  Biso   1.000  C
  C328     1.0000 0.85690  0.45044  0.57829  Biso   1.000  C
  C329     1.0000 0.85690  0.54956  0.42171  Biso   1.000  C
  C330     1.0000 0.07829  0.35690  0.45044  Biso   1.000  C
  C331     1.0000 0.07829  0.54956  0.35690  Biso   1.000  C
  C332     1.0000 0.92171  0.45044  0.35690  Biso   1.000  C
  C333     1.0000 0.95044  0.64310  0.57829  Biso   1.000  C
  C334     1.0000 0.95044  0.35690  0.42171  Biso   1.000  C
  C335     1.0000 0.14310  0.42171  0.54956  Biso   1.000  C
  C336     1.0000 0.85690  0.42171  0.45044  Biso   1.000  C
  C337     1.0000 0.54956  0.07829  0.64310  Biso   1.000  C
  C338     1.0000 0.42171  0.04956  0.64310  Biso   1.000  C
  C339     1.0000 0.45044  0.92171  0.64310  Biso   1.000  C
  C340     1.0000 0.57829  0.95044  0.64310  Biso   1.000  C
  C341     1.0000 0.54956  0.85690  0.57829  Biso   1.000  C
  C342     1.0000 0.54956  0.92171  0.35690  Biso   1.000  C
  C343     1.0000 0.54956  0.14310  0.42171  Biso   1.000  C
  C344     1.0000 0.64310  0.07829  0.45044  Biso   1.000  C
  C345     1.0000 0.45044  0.07829  0.35690  Biso   1.000  C
  C346     1.0000 0.35690  0.07829  0.54956  Biso   1.000  C
  C347     1.0000 0.64310  0.04956  0.57829  Biso   1.000  C
  C348     1.0000 0.57829  0.14310  0.54956  Biso   1.000  C
  C349     1.0000 0.42171  0.85690  0.54956  Biso   1.000  C
  C350     1.0000 0.64310  0.95044  0.42171  Biso   1.000  C
  C351     1.0000 0.42171  0.14310  0.45044  Biso   1.000  C
  C352     1.0000 0.35690  0.95044  0.57829  Biso   1.000  C
  C353     1.0000 0.35690  0.04956  0.42171  Biso   1.000  C
  C354     1.0000 0.57829  0.85690  0.45044  Biso   1.000  C
  C355     1.0000 0.57829  0.04956  0.35690  Biso   1.000  C
  C356     1.0000 0.42171  0.95044  0.35690  Biso   1.000  C
  C357     1.0000 0.45044  0.14310  0.57829  Biso   1.000  C
  C358     1.0000 0.45044  0.85690  0.42171  Biso   1.000  C
  C359     1.0000 0.64310  0.92171  0.54956  Biso   1.000  C
  C360     1.0000 0.35690  0.92171  0.45044  Biso   1.000  C
  C361     1.0000 0.54956  0.57829  0.14310  Biso   1.000  C
  C362     1.0000 0.42171  0.54956  0.14310  Biso   1.000  C
  C363     1.0000 0.45044  0.42171  0.14310  Biso   1.000  C
  C364     1.0000 0.57829  0.45044  0.14310  Biso   1.000  C
  C365     1.0000 0.54956  0.35690  0.07829  Biso   1.000  C
  C366     1.0000 0.54956  0.42171  0.85690  Biso   1.000  C
  C367     1.0000 0.54956  0.64310  0.92171  Biso   1.000  C
  C368     1.0000 0.64310  0.57829  0.95044  Biso   1.000  C
  C369     1.0000 0.45044  0.57829  0.85690  Biso   1.000  C
  C370     1.0000 0.35690  0.57829  0.04956  Biso   1.000  C
  C371     1.0000 0.64310  0.54956  0.07829  Biso   1.000  C
  C372     1.0000 0.57829  0.64310  0.04956  Biso   1.000  C
  C373     1.0000 0.42171  0.35690  0.04956  Biso   1.000  C
  C374     1.0000 0.64310  0.45044  0.92171  Biso   1.000  C
  C375     1.0000 0.42171  0.64310  0.95044  Biso   1.000  C
  C376     1.0000 0.35690  0.45044  0.07829  Biso   1.000  C
  C377     1.0000 0.35690  0.54956  0.92171  Biso   1.000  C
  C378     1.0000 0.57829  0.35690  0.95044  Biso   1.000  C
  C379     1.0000 0.57829  0.54956  0.85690  Biso   1.000  C
  C380     1.0000 0.42171  0.45044  0.85690  Biso   1.000  C
  C381     1.0000 0.45044  0.64310  0.07829  Biso   1.000  C
  C382     1.0000 0.45044  0.35690  0.92171  Biso   1.000  C
  C383     1.0000 0.64310  0.42171  0.04956  Biso   1.000  C
  C384     1.0000 0.35690  0.42171  0.95044  Biso   1.000  C
  C385     1.0000 0.95044  0.92171  0.85690  Biso   1.000  C
  C386     1.0000 0.07829  0.95044  0.85690  Biso   1.000  C
  C387     1.0000 0.04956  0.07829  0.85690  Biso   1.000  C
  C388     1.0000 0.92171  0.04956  0.85690  Biso   1.000  C
  C389     1.0000 0.95044  0.14310  0.92171  Biso   1.000  C
  C390     1.0000 0.95044  0.07829  0.14310  Biso   1.000  C
  C391     1.0000 0.95044  0.85690  0.07829  Biso   1.000  C
  C392     1.0000 0.85690  0.92171  0.04956  Biso   1.000  C
  C393     1.0000 0.04956  0.92171  0.14310  Biso   1.000  C
  C394     1.0000 0.14310  0.92171  0.95044  Biso   1.000  C
  C395     1.0000 0.85690  0.95044  0.92171  Biso   1.000  C
  C396     1.0000 0.92171  0.85690  0.95044  Biso   1.000  C
  C397     1.0000 0.07829  0.14310  0.95044  Biso   1.000  C
  C398     1.0000 0.85690  0.04956  0.07829  Biso   1.000  C
  C399     1.0000 0.07829  0.85690  0.04956  Biso   1.000  C
  C400     1.0000 0.14310  0.04956  0.92171  Biso   1.000  C
  C401     1.0000 0.14310  0.95044  0.07829  Biso   1.000  C
  C402     1.0000 0.92171  0.14310  0.04956  Biso   1.000  C
  C403     1.0000 0.92171  0.95044  0.14310  Biso   1.000  C
  C404     1.0000 0.07829  0.04956  0.14310  Biso   1.000  C
  C405     1.0000 0.04956  0.85690  0.92171  Biso   1.000  C
  C406     1.0000 0.04956  0.14310  0.07829  Biso   1.000  C
  C407     1.0000 0.85690  0.07829  0.95044  Biso   1.000  C
  C408     1.0000 0.14310  0.07829  0.04956  Biso   1.000  C
  C409     1.0000 0.95044  0.42171  0.35690  Biso   1.000  C
  C410     1.0000 0.07829  0.45044  0.35690  Biso   1.000  C
  C411     1.0000 0.04956  0.57829  0.35690  Biso   1.000  C
  C412     1.0000 0.92171  0.54956  0.35690  Biso   1.000  C
  C413     1.0000 0.95044  0.64310  0.42171  Biso   1.000  C
  C414     1.0000 0.95044  0.57829  0.64310  Biso   1.000  C
  C415     1.0000 0.95044  0.35690  0.57829  Biso   1.000  C
  C416     1.0000 0.85690  0.42171  0.54956  Biso   1.000  C
  C417     1.0000 0.04956  0.42171  0.64310  Biso   1.000  C
  C418     1.0000 0.14310  0.42171  0.45044  Biso   1.000  C
  C419     1.0000 0.85690  0.45044  0.42171  Biso   1.000  C
  C420     1.0000 0.92171  0.35690  0.45044  Biso   1.000  C
  C421     1.0000 0.07829  0.64310  0.45044  Biso   1.000  C
  C422     1.0000 0.85690  0.54956  0.57829  Biso   1.000  C
  C423     1.0000 0.07829  0.35690  0.54956  Biso   1.000  C
  C424     1.0000 0.14310  0.54956  0.42171  Biso   1.000  C
  C425     1.0000 0.14310  0.45044  0.57829  Biso   1.000  C
  C426     1.0000 0.92171  0.64310  0.54956  Biso   1.000  C
  C427     1.0000 0.92171  0.45044  0.64310  Biso   1.000  C
  C428     1.0000 0.07829  0.54956  0.64310  Biso   1.000  C
  C429     1.0000 0.04956  0.35690  0.42171  Biso   1.000  C
  C430     1.0000 0.04956  0.64310  0.57829  Biso   1.000  C
  C431     1.0000 0.85690  0.57829  0.45044  Biso   1.000  C
  C432     1.0000 0.14310  0.57829  0.54956  Biso   1.000  C
  C433     1.0000 0.45044  0.92171  0.35690  Biso   1.000  C
  C434     1.0000 0.57829  0.95044  0.35690  Biso   1.000  C
  C435     1.0000 0.54956  0.07829  0.35690  Biso   1.000  C
  C436     1.0000 0.42171  0.04956  0.35690  Biso   1.000  C
  C437     1.0000 0.45044  0.14310  0.42171  Biso   1.000  C
  C438     1.0000 0.45044  0.07829  0.64310  Biso   1.000  C
  C439     1.0000 0.45044  0.85690  0.57829  Biso   1.000  C
  C440     1.0000 0.35690  0.92171  0.54956  Biso   1.000  C
  C441     1.0000 0.54956  0.92171  0.64310  Biso   1.000  C
  C442     1.0000 0.64310  0.92171  0.45044  Biso   1.000  C
  C443     1.0000 0.35690  0.95044  0.42171  Biso   1.000  C
  C444     1.0000 0.42171  0.85690  0.45044  Biso   1.000  C
  C445     1.0000 0.57829  0.14310  0.45044  Biso   1.000  C
  C446     1.0000 0.35690  0.04956  0.57829  Biso   1.000  C
  C447     1.0000 0.57829  0.85690  0.54956  Biso   1.000  C
  C448     1.0000 0.64310  0.04956  0.42171  Biso   1.000  C
  C449     1.0000 0.64310  0.95044  0.57829  Biso   1.000  C
  C450     1.0000 0.42171  0.14310  0.54956  Biso   1.000  C
  C451     1.0000 0.42171  0.95044  0.64310  Biso   1.000  C
  C452     1.0000 0.57829  0.04956  0.64310  Biso   1.000  C
  C453     1.0000 0.54956  0.85690  0.42171  Biso   1.000  C
  C454     1.0000 0.54956  0.14310  0.57829  Biso   1.000  C
  C455     1.0000 0.35690  0.07829  0.45044  Biso   1.000  C
  C456     1.0000 0.64310  0.07829  0.54956  Biso   1.000  C
  C457     1.0000 0.45044  0.42171  0.85690  Biso   1.000  C
  C458     1.0000 0.57829  0.45044  0.85690  Biso   1.000  C
  C459     1.0000 0.54956  0.57829  0.85690  Biso   1.000  C
  C460     1.0000 0.42171  0.54956  0.85690  Biso   1.000  C
  C461     1.0000 0.45044  0.64310  0.92171  Biso   1.000  C
  C462     1.0000 0.45044  0.57829  0.14310  Biso   1.000  C
  C463     1.0000 0.45044  0.35690  0.07829  Biso   1.000  C
  C464     1.0000 0.35690  0.42171  0.04956  Biso   1.000  C
  C465     1.0000 0.54956  0.42171  0.14310  Biso   1.000  C
  C466     1.0000 0.64310  0.42171  0.95044  Biso   1.000  C
  C467     1.0000 0.35690  0.45044  0.92171  Biso   1.000  C
  C468     1.0000 0.42171  0.35690  0.95044  Biso   1.000  C
  C469     1.0000 0.57829  0.64310  0.95044  Biso   1.000  C
  C470     1.0000 0.35690  0.54956  0.07829  Biso   1.000  C
  C471     1.0000 0.57829  0.35690  0.04956  Biso   1.000  C
  C472     1.0000 0.64310  0.54956  0.92171  Biso   1.000  C
  C473     1.0000 0.64310  0.45044  0.07829  Biso   1.000  C
  C474     1.0000 0.42171  0.64310  0.04956  Biso   1.000  C
  C475     1.0000 0.42171  0.45044  0.14310  Biso   1.000  C
  C476     1.0000 0.57829  0.54956  0.14310  Biso   1.000  C
  C477     1.0000 0.54956  0.35690  0.92171  Biso   1.000  C
  C478     1.0000 0.54956  0.64310  0.07829  Biso   1.000  C
  C479     1.0000 0.35690  0.57829  0.95044  Biso   1.000  C
  C480     1.0000 0.64310  0.57829  0.04956  Biso   1.000  C
  C481     1.0000 0.05679  0.08556  0.16440  Biso   1.000  C
  C482     1.0000 0.91444  0.05679  0.16440  Biso   1.000  C
  C483     1.0000 0.94321  0.91444  0.16440  Biso   1.000  C
  C484     1.0000 0.08556  0.94321  0.16440  Biso   1.000  C
  C485     1.0000 0.05679  0.83560  0.08556  Biso   1.000  C
  C486     1.0000 0.05679  0.91444  0.83560  Biso   1.000  C
  C487     1.0000 0.05679  0.16440  0.91444  Biso   1.000  C
  C488     1.0000 0.16440  0.08556  0.94321  Biso   1.000  C
  C489     1.0000 0.94321  0.08556  0.83560  Biso   1.000  C
  C490     1.0000 0.83560  0.08556  0.05679  Biso   1.000  C
  C491     1.0000 0.16440  0.05679  0.08556  Biso   1.000  C
  C492     1.0000 0.08556  0.16440  0.05679  Biso   1.000  C
  C493     1.0000 0.91444  0.83560  0.05679  Biso   1.000  C
  C494     1.0000 0.16440  0.94321  0.91444  Biso   1.000  C
  C495     1.0000 0.91444  0.16440  0.94321  Biso   1.000  C
  C496     1.0000 0.83560  0.94321  0.08556  Biso   1.000  C
  C497     1.0000 0.83560  0.05679  0.91444  Biso   1.000  C
  C498     1.0000 0.08556  0.83560  0.94321  Biso   1.000  C
  C499     1.0000 0.08556  0.05679  0.83560  Biso   1.000  C
  C500     1.0000 0.91444  0.94321  0.83560  Biso   1.000  C
  C501     1.0000 0.94321  0.16440  0.08556  Biso   1.000  C
  C502     1.0000 0.94321  0.83560  0.91444  Biso   1.000  C
  C503     1.0000 0.16440  0.91444  0.05679  Biso   1.000  C
  C504     1.0000 0.83560  0.91444  0.94321  Biso   1.000  C
  C505     1.0000 0.05679  0.58556  0.66440  Biso   1.000  C
  C506     1.0000 0.91444  0.55679  0.66440  Biso   1.000  C
  C507     1.0000 0.94321  0.41444  0.66440  Biso   1.000  C
  C508     1.0000 0.08556  0.44321  0.66440  Biso   1.000  C
  C509     1.0000 0.05679  0.33560  0.58556  Biso   1.000  C
  C510     1.0000 0.05679  0.41444  0.33560  Biso   1.000  C
  C511     1.0000 0.05679  0.66440  0.41444  Biso   1.000  C
  C512     1.0000 0.16440  0.58556  0.44321  Biso   1.000  C
  C513     1.0000 0.94321  0.58556  0.33560  Biso   1.000  C
  C514     1.0000 0.83560  0.58556  0.55679  Biso   1.000  C
  C515     1.0000 0.16440  0.55679  0.58556  Biso   1.000  C
  C516     1.0000 0.08556  0.66440  0.55679  Biso   1.000  C
  C517     1.0000 0.91444  0.33560  0.55679  Biso   1.000  C
  C518     1.0000 0.16440  0.44321  0.41444  Biso   1.000  C
  C519     1.0000 0.91444  0.66440  0.44321  Biso   1.000  C
  C520     1.0000 0.83560  0.44321  0.58556  Biso   1.000  C
  C521     1.0000 0.83560  0.55679  0.41444  Biso   1.000  C
  C522     1.0000 0.08556  0.33560  0.44321  Biso   1.000  C
  C523     1.0000 0.08556  0.55679  0.33560  Biso   1.000  C
  C524     1.0000 0.91444  0.44321  0.33560  Biso   1.000  C
  C525     1.0000 0.94321  0.66440  0.58556  Biso   1.000  C
  C526     1.0000 0.94321  0.33560  0.41444  Biso   1.000  C
  C527     1.0000 0.16440  0.41444  0.55679  Biso   1.000  C
  C528     1.0000 0.83560  0.41444  0.44321  Biso   1.000  C
  C529     1.0000 0.55679  0.08556  0.66440  Biso   1.000  C
  C530     1.0000 0.41444  0.05679  0.66440  Biso   1.000  C
  C531     1.0000 0.44321  0.91444  0.66440  Biso   1.000  C
  C532     1.0000 0.58556  0.94321  0.66440  Biso   1.000  C
  C533     1.0000 0.55679  0.83560  0.58556  Biso   1.000  C
  C534     1.0000 0.55679  0.91444  0.33560  Biso   1.000  C
  C535     1.0000 0.55679  0.16440  0.41444  Biso   1.000  C
  C536     1.0000 0.66440  0.08556  0.44321  Biso   1.000  C
  C537     1.0000 0.44321  0.08556  0.33560  Biso   1.000  C
  C538     1.0000 0.33560  0.08556  0.55679  Biso   1.000  C
  C539     1.0000 0.66440  0.05679  0.58556  Biso   1.000  C
  C540     1.0000 0.58556  0.16440  0.55679  Biso   1.000  C
  C541     1.0000 0.41444  0.83560  0.55679  Biso   1.000  C
  C542     1.0000 0.66440  0.94321  0.41444  Biso   1.000  C
  C543     1.0000 0.41444  0.16440  0.44321  Biso   1.000  C
  C544     1.0000 0.33560  0.94321  0.58556  Biso   1.000  C
  C545     1.0000 0.33560  0.05679  0.41444  Biso   1.000  C
  C546     1.0000 0.58556  0.83560  0.44321  Biso   1.000  C
  C547     1.0000 0.58556  0.05679  0.33560  Biso   1.000  C
  C548     1.0000 0.41444  0.94321  0.33560  Biso   1.000  C
  C549     1.0000 0.44321  0.16440  0.58556  Biso   1.000  C
  C550     1.0000 0.44321  0.83560  0.41444  Biso   1.000  C
  C551     1.0000 0.66440  0.91444  0.55679  Biso   1.000  C
  C552     1.0000 0.33560  0.91444  0.44321  Biso   1.000  C
  C553     1.0000 0.55679  0.58556  0.16440  Biso   1.000  C
  C554     1.0000 0.41444  0.55679  0.16440  Biso   1.000  C
  C555     1.0000 0.44321  0.41444  0.16440  Biso   1.000  C
  C556     1.0000 0.58556  0.44321  0.16440  Biso   1.000  C
  C557     1.0000 0.55679  0.33560  0.08556  Biso   1.000  C
  C558     1.0000 0.55679  0.41444  0.83560  Biso   1.000  C
  C559     1.0000 0.55679  0.66440  0.91444  Biso   1.000  C
  C560     1.0000 0.66440  0.58556  0.94321  Biso   1.000  C
  C561     1.0000 0.44321  0.58556  0.83560  Biso   1.000  C
  C562     1.0000 0.33560  0.58556  0.05679  Biso   1.000  C
  C563     1.0000 0.66440  0.55679  0.08556  Biso   1.000  C
  C564     1.0000 0.58556  0.66440  0.05679  Biso   1.000  C
  C565     1.0000 0.41444  0.33560  0.05679  Biso   1.000  C
  C566     1.0000 0.66440  0.44321  0.91444  Biso   1.000  C
  C567     1.0000 0.41444  0.66440  0.94321  Biso   1.000  C
  C568     1.0000 0.33560  0.44321  0.08556  Biso   1.000  C
  C569     1.0000 0.33560  0.55679  0.91444  Biso   1.000  C
  C570     1.0000 0.58556  0.33560  0.94321  Biso   1.000  C
  C571     1.0000 0.58556  0.55679  0.83560  Biso   1.000  C
  C572     1.0000 0.41444  0.44321  0.83560  Biso   1.000  C
  C573     1.0000 0.44321  0.66440  0.08556  Biso   1.000  C
  C574     1.0000 0.44321  0.33560  0.91444  Biso   1.000  C
  C575     1.0000 0.66440  0.41444  0.05679  Biso   1.000  C
  C576     1.0000 0.33560  0.41444  0.94321  Biso   1.000  C
  C577     1.0000 0.94321  0.91444  0.83560  Biso   1.000  C
  C578     1.0000 0.08556  0.94321  0.83560  Biso   1.000  C
  C579     1.0000 0.05679  0.08556  0.83560  Biso   1.000  C
  C580     1.0000 0.91444  0.05679  0.83560  Biso   1.000  C
  C581     1.0000 0.94321  0.16440  0.91444  Biso   1.000  C
  C582     1.0000 0.94321  0.08556  0.16440  Biso   1.000  C
  C583     1.0000 0.94321  0.83560  0.08556  Biso   1.000  C
  C584     1.0000 0.83560  0.91444  0.05679  Biso   1.000  C
  C585     1.0000 0.05679  0.91444  0.16440  Biso   1.000  C
  C586     1.0000 0.16440  0.91444  0.94321  Biso   1.000  C
  C587     1.0000 0.83560  0.94321  0.91444  Biso   1.000  C
  C588     1.0000 0.91444  0.83560  0.94321  Biso   1.000  C
  C589     1.0000 0.08556  0.16440  0.94321  Biso   1.000  C
  C590     1.0000 0.83560  0.05679  0.08556  Biso   1.000  C
  C591     1.0000 0.08556  0.83560  0.05679  Biso   1.000  C
  C592     1.0000 0.16440  0.05679  0.91444  Biso   1.000  C
  C593     1.0000 0.16440  0.94321  0.08556  Biso   1.000  C
  C594     1.0000 0.91444  0.16440  0.05679  Biso   1.000  C
  C595     1.0000 0.91444  0.94321  0.16440  Biso   1.000  C
  C596     1.0000 0.08556  0.05679  0.16440  Biso   1.000  C
  C597     1.0000 0.05679  0.83560  0.91444  Biso   1.000  C
  C598     1.0000 0.05679  0.16440  0.08556  Biso   1.000  C
  C599     1.0000 0.83560  0.08556  0.94321  Biso   1.000  C
  C600     1.0000 0.16440  0.08556  0.05679  Biso   1.000  C
  C601     1.0000 0.94321  0.41444  0.33560  Biso   1.000  C
  C602     1.0000 0.08556  0.44321  0.33560  Biso   1.000  C
  C603     1.0000 0.05679  0.58556  0.33560  Biso   1.000  C
  C604     1.0000 0.91444  0.55679  0.33560  Biso   1.000  C
  C605     1.0000 0.94321  0.66440  0.41444  Biso   1.000  C
  C606     1.0000 0.94321  0.58556  0.66440  Biso   1.000  C
  C607     1.0000 0.94321  0.33560  0.58556  Biso   1.000  C
  C608     1.0000 0.83560  0.41444  0.55679  Biso   1.000  C
  C609     1.0000 0.05679  0.41444  0.66440  Biso   1.000  C
  C610     1.0000 0.16440  0.41444  0.44321  Biso   1.000  C
  C611     1.0000 0.83560  0.44321  0.41444  Biso   1.000  C
  C612     1.0000 0.91444  0.33560  0.44321  Biso   1.000  C
  C613     1.0000 0.08556  0.66440  0.44321  Biso   1.000  C
  C614     1.0000 0.83560  0.55679  0.58556  Biso   1.000  C
  C615     1.0000 0.08556  0.33560  0.55679  Biso   1.000  C
  C616     1.0000 0.16440  0.55679  0.41444  Biso   1.000  C
  C617     1.0000 0.16440  0.44321  0.58556  Biso   1.000  C
  C618     1.0000 0.91444  0.66440  0.55679  Biso   1.000  C
  C619     1.0000 0.91444  0.44321  0.66440  Biso   1.000  C
  C620     1.0000 0.08556  0.55679  0.66440  Biso   1.000  C
  C621     1.0000 0.05679  0.33560  0.41444  Biso   1.000  C
  C622     1.0000 0.05679  0.66440  0.58556  Biso   1.000  C
  C623     1.0000 0.83560  0.58556  0.44321  Biso   1.000  C
  C624     1.0000 0.16440  0.58556  0.55679  Biso   1.000  C
  C625     1.0000 0.44321  0.91444  0.33560  Biso   1.000  C
  C626     1.0000 0.58556  0.94321  0.33560  Biso   1.000  C
  C627     1.0000 0.55679  0.08556  0.33560  Biso   1.000  C
  C628     1.0000 0.41444  0.05679  0.33560  Biso   1.000  C
  C629     1.0000 0.44321  0.16440  0.41444  Biso   1.000  C
  C630     1.0000 0.44321  0.08556  0.66440  Biso   1.000  C
  C631     1.0000 0.44321  0.83560  0.58556  Biso   1.000  C
  C632     1.0000 0.33560  0.91444  0.55679  Biso   1.000  C
  C633     1.0000 0.55679  0.91444  0.66440  Biso   1.000  C
  C634     1.0000 0.66440  0.91444  0.44321  Biso   1.000  C
  C635     1.0000 0.33560  0.94321  0.41444  Biso   1.000  C
  C636     1.0000 0.41444  0.83560  0.44321  Biso   1.000  C
  C637     1.0000 0.58556  0.16440  0.44321  Biso   1.000  C
  C638     1.0000 0.33560  0.05679  0.58556  Biso   1.000  C
  C639     1.0000 0.58556  0.83560  0.55679  Biso   1.000  C
  C640     1.0000 0.66440  0.05679  0.41444  Biso   1.000  C
  C641     1.0000 0.66440  0.94321  0.58556  Biso   1.000  C
  C642     1.0000 0.41444  0.16440  0.55679  Biso   1.000  C
  C643     1.0000 0.41444  0.94321  0.66440  Biso   1.000  C
  C644     1.0000 0.58556  0.05679  0.66440  Biso   1.000  C
  C645     1.0000 0.55679  0.83560  0.41444  Biso   1.000  C
  C646     1.0000 0.55679  0.16440  0.58556  Biso   1.000  C
  C647     1.0000 0.33560  0.08556  0.44321  Biso   1.000  C
  C648     1.0000 0.66440  0.08556  0.55679  Biso   1.000  C
  C649     1.0000 0.44321  0.41444  0.83560  Biso   1.000  C
  C650     1.0000 0.58556  0.44321  0.83560  Biso   1.000  C
  C651     1.0000 0.55679  0.58556  0.83560  Biso   1.000  C
  C652     1.0000 0.41444  0.55679  0.83560  Biso   1.000  C
  C653     1.0000 0.44321  0.66440  0.91444  Biso   1.000  C
  C654     1.0000 0.44321  0.58556  0.16440  Biso   1.000  C
  C655     1.0000 0.44321  0.33560  0.08556  Biso   1.000  C
  C656     1.0000 0.33560  0.41444  0.05679  Biso   1.000  C
  C657     1.0000 0.55679  0.41444  0.16440  Biso   1.000  C
  C658     1.0000 0.66440  0.41444  0.94321  Biso   1.000  C
  C659     1.0000 0.33560  0.44321  0.91444  Biso   1.000  C
  C660     1.0000 0.41444  0.33560  0.94321  Biso   1.000  C
  C661     1.0000 0.58556  0.66440  0.94321  Biso   1.000  C
  C662     1.0000 0.33560  0.55679  0.08556  Biso   1.000  C
  C663     1.0000 0.58556  0.33560  0.05679  Biso   1.000  C
  C664     1.0000 0.66440  0.55679  0.91444  Biso   1.000  C
  C665     1.0000 0.66440  0.44321  0.08556  Biso   1.000  C
  C666     1.0000 0.41444  0.66440  0.05679  Biso   1.000  C
  C667     1.0000 0.41444  0.44321  0.16440  Biso   1.000  C
  C668     1.0000 0.58556  0.55679  0.16440  Biso   1.000  C
  C669     1.0000 0.55679  0.33560  0.91444  Biso   1.000  C
  C670     1.0000 0.55679  0.66440  0.08556  Biso   1.000  C
  C671     1.0000 0.33560  0.58556  0.94321  Biso   1.000  C
  C672     1.0000 0.66440  0.58556  0.05679  Biso   1.000  C
  H97      1.0000 0.04960  0.09800  0.17150  Biso   1.000  H
  H98      1.0000 0.90200  0.04960  0.17150  Biso   1.000  H
  H99      1.0000 0.95040  0.90200  0.17150  Biso   1.000  H
  H100     1.0000 0.09800  0.95040  0.17150  Biso   1.000  H
  H101     1.0000 0.04960  0.82850  0.09800  Biso   1.000  H
  H102     1.0000 0.04960  0.90200  0.82850  Biso   1.000  H
  H103     1.0000 0.04960  0.17150  0.90200  Biso   1.000  H
  H104     1.0000 0.17150  0.09800  0.95040  Biso   1.000  H
  H105     1.0000 0.95040  0.09800  0.82850  Biso   1.000  H
  H106     1.0000 0.82850  0.09800  0.04960  Biso   1.000  H
  H107     1.0000 0.17150  0.04960  0.09800  Biso   1.000  H
  H108     1.0000 0.09800  0.17150  0.04960  Biso   1.000  H
  H109     1.0000 0.90200  0.82850  0.04960  Biso   1.000  H
  H110     1.0000 0.17150  0.95040  0.90200  Biso   1.000  H
  H111     1.0000 0.90200  0.17150  0.95040  Biso   1.000  H
  H112     1.0000 0.82850  0.95040  0.09800  Biso   1.000  H
  H113     1.0000 0.82850  0.04960  0.90200  Biso   1.000  H
  H114     1.0000 0.09800  0.82850  0.95040  Biso   1.000  H
  H115     1.0000 0.09800  0.04960  0.82850  Biso   1.000  H
  H116     1.0000 0.90200  0.95040  0.82850  Biso   1.000  H
  H117     1.0000 0.95040  0.17150  0.09800  Biso   1.000  H
  H118     1.0000 0.95040  0.82850  0.90200  Biso   1.000  H
  H119     1.0000 0.17150  0.90200  0.04960  Biso   1.000  H
  H120     1.0000 0.82850  0.90200  0.95040  Biso   1.000  H
  H121     1.0000 0.04960  0.59800  0.67150  Biso   1.000  H
  H122     1.0000 0.90200  0.54960  0.67150  Biso   1.000  H
  H123     1.0000 0.95040  0.40200  0.67150  Biso   1.000  H
  H124     1.0000 0.09800  0.45040  0.67150  Biso   1.000  H
  H125     1.0000 0.04960  0.32850  0.59800  Biso   1.000  H
  H126     1.0000 0.04960  0.40200  0.32850  Biso   1.000  H
  H127     1.0000 0.04960  0.67150  0.40200  Biso   1.000  H
  H128     1.0000 0.17150  0.59800  0.45040  Biso   1.000  H
  H129     1.0000 0.95040  0.59800  0.32850  Biso   1.000  H
  H130     1.0000 0.82850  0.59800  0.54960  Biso   1.000  H
  H131     1.0000 0.17150  0.54960  0.59800  Biso   1.000  H
  H132     1.0000 0.09800  0.67150  0.54960  Biso   1.000  H
  H133     1.0000 0.90200  0.32850  0.54960  Biso   1.000  H
  H134     1.0000 0.17150  0.45040  0.40200  Biso   1.000  H
  H135     1.0000 0.90200  0.67150  0.45040  Biso   1.000  H
  H136     1.0000 0.82850  0.45040  0.59800  Biso   1.000  H
  H137     1.0000 0.82850  0.54960  0.40200  Biso   1.000  H
  H138     1.0000 0.09800  0.32850  0.45040  Biso   1.000  H
  H139     1.0000 0.09800  0.54960  0.32850  Biso   1.000  H
  H140     1.0000 0.90200  0.45040  0.32850  Biso   1.000  H
  H141     1.0000 0.95040  0.67150  0.59800  Biso   1.000  H
  H142     1.0000 0.95040  0.32850  0.40200  Biso   1.000  H
  H143     1.0000 0.17150  0.40200  0.54960  Biso   1.000  H
  H144     1.0000 0.82850  0.40200  0.45040  Biso   1.000  H
  H145     1.0000 0.54960  0.09800  0.67150  Biso   1.000  H
  H146     1.0000 0.40200  0.04960  0.67150  Biso   1.000  H
  H147     1.0000 0.45040  0.90200  0.67150  Biso   1.000  H
  H148     1.0000 0.59800  0.95040  0.67150  Biso   1.000  H
  H149     1.0000 0.54960  0.82850  0.59800  Biso   1.000  H
  H150     1.0000 0.54960  0.90200  0.32850  Biso   1.000  H
  H151     1.0000 0.54960  0.17150  0.40200  Biso   1.000  H
  H152     1.0000 0.67150  0.09800  0.45040  Biso   1.000  H
  H153     1.0000 0.45040  0.09800  0.32850  Biso   1.000  H
  H154     1.0000 0.32850  0.09800  0.54960  Biso   1.000  H
  H155     1.0000 0.67150  0.04960  0.59800  Biso   1.000  H
  H156     1.0000 0.59800  0.17150  0.54960  Biso   1.000  H
  H157     1.0000 0.40200  0.82850  0.54960  Biso   1.000  H
  H158     1.0000 0.67150  0.95040  0.40200  Biso   1.000  H
  H159     1.0000 0.40200  0.17150  0.45040  Biso   1.000  H
  H160     1.0000 0.32850  0.95040  0.59800  Biso   1.000  H
  H161     1.0000 0.32850  0.04960  0.40200  Biso   1.000  H
  H162     1.0000 0.59800  0.82850  0.45040  Biso   1.000  H
  H163     1.0000 0.59800  0.04960  0.32850  Biso   1.000  H
  H164     1.0000 0.40200  0.95040  0.32850  Biso   1.000  H
  H165     1.0000 0.45040  0.17150  0.59800  Biso   1.000  H
  H166     1.0000 0.45040  0.82850  0.40200  Biso   1.000  H
  H167     1.0000 0.67150  0.90200  0.54960  Biso   1.000  H
  H168     1.0000 0.32850  0.90200  0.45040  Biso   1.000  H
  H169     1.0000 0.54960  0.59800  0.17150  Biso   1.000  H
  H170     1.0000 0.40200  0.54960  0.17150  Biso   1.000  H
  H171     1.0000 0.45040  0.40200  0.17150  Biso   1.000  H
  H172     1.0000 0.59800  0.45040  0.17150  Biso   1.000  H
  H173     1.0000 0.54960  0.32850  0.09800  Biso   1.000  H
  H174     1.0000 0.54960  0.40200  0.82850  Biso   1.000  H
  H175     1.0000 0.54960  0.67150  0.90200  Biso   1.000  H
  H176     1.0000 0.67150  0.59800  0.95040  Biso   1.000  H
  H177     1.0000 0.45040  0.59800  0.82850  Biso   1.000  H
  H178     1.0000 0.32850  0.59800  0.04960  Biso   1.000  H
  H179     1.0000 0.67150  0.54960  0.09800  Biso   1.000  H
  H180     1.0000 0.59800  0.67150  0.04960  Biso   1.000  H
  H181     1.0000 0.40200  0.32850  0.04960  Biso   1.000  H
  H182     1.0000 0.67150  0.45040  0.90200  Biso   1.000  H
  H183     1.0000 0.40200  0.67150  0.95040  Biso   1.000  H
  H184     1.0000 0.32850  0.45040  0.09800  Biso   1.000  H
  H185     1.0000 0.32850  0.54960  0.90200  Biso   1.000  H
  H186     1.0000 0.59800  0.32850  0.95040  Biso   1.000  H
  H187     1.0000 0.59800  0.54960  0.82850  Biso   1.000  H
  H188     1.0000 0.40200  0.45040  0.82850  Biso   1.000  H
  H189     1.0000 0.45040  0.67150  0.09800  Biso   1.000  H
  H190     1.0000 0.45040  0.32850  0.90200  Biso   1.000  H
  H191     1.0000 0.67150  0.40200  0.04960  Biso   1.000  H
  H192     1.0000 0.32850  0.40200  0.95040  Biso   1.000  H
  H193     1.0000 0.95040  0.90200  0.82850  Biso   1.000  H
  H194     1.0000 0.09800  0.95040  0.82850  Biso   1.000  H
  H195     1.0000 0.04960  0.09800  0.82850  Biso   1.000  H
  H196     1.0000 0.90200  0.04960  0.82850  Biso   1.000  H
  H197     1.0000 0.95040  0.17150  0.90200  Biso   1.000  H
  H198     1.0000 0.95040  0.09800  0.17150  Biso   1.000  H
  H199     1.0000 0.95040  0.82850  0.09800  Biso   1.000  H
  H200     1.0000 0.82850  0.90200  0.04960  Biso   1.000  H
  H201     1.0000 0.04960  0.90200  0.17150  Biso   1.000  H
  H202     1.0000 0.17150  0.90200  0.95040  Biso   1.000  H
  H203     1.0000 0.82850  0.95040  0.90200  Biso   1.000  H
  H204     1.0000 0.90200  0.82850  0.95040  Biso   1.000  H
  H205     1.0000 0.09800  0.17150  0.95040  Biso   1.000  H
  H206     1.0000 0.82850  0.04960  0.09800  Biso   1.000  H
  H207     1.0000 0.09800  0.82850  0.04960  Biso   1.000  H
  H208     1.0000 0.17150  0.04960  0.90200  Biso   1.000  H
  H209     1.0000 0.17150  0.95040  0.09800  Biso   1.000  H
  H210     1.0000 0.90200  0.17150  0.04960  Biso   1.000  H
  H211     1.0000 0.90200  0.95040  0.17150  Biso   1.000  H
  H212     1.0000 0.09800  0.04960  0.17150  Biso   1.000  H
  H213     1.0000 0.04960  0.82850  0.90200  Biso   1.000  H
  H214     1.0000 0.04960  0.17150  0.09800  Biso   1.000  H
  H215     1.0000 0.82850  0.09800  0.95040  Biso   1.000  H
  H216     1.0000 0.17150  0.09800  0.04960  Biso   1.000  H
  H217     1.0000 0.95040  0.40200  0.32850  Biso   1.000  H
  H218     1.0000 0.09800  0.45040  0.32850  Biso   1.000  H
  H219     1.0000 0.04960  0.59800  0.32850  Biso   1.000  H
  H220     1.0000 0.90200  0.54960  0.32850  Biso   1.000  H
  H221     1.0000 0.95040  0.67150  0.40200  Biso   1.000  H
  H222     1.0000 0.95040  0.59800  0.67150  Biso   1.000  H
  H223     1.0000 0.95040  0.32850  0.59800  Biso   1.000  H
  H224     1.0000 0.82850  0.40200  0.54960  Biso   1.000  H
  H225     1.0000 0.04960  0.40200  0.67150  Biso   1.000  H
  H226     1.0000 0.17150  0.40200  0.45040  Biso   1.000  H
  H227     1.0000 0.82850  0.45040  0.40200  Biso   1.000  H
  H228     1.0000 0.90200  0.32850  0.45040  Biso   1.000  H
  H229     1.0000 0.09800  0.67150  0.45040  Biso   1.000  H
  H230     1.0000 0.82850  0.54960  0.59800  Biso   1.000  H
  H231     1.0000 0.09800  0.32850  0.54960  Biso   1.000  H
  H232     1.0000 0.17150  0.54960  0.40200  Biso   1.000  H
  H233     1.0000 0.17150  0.45040  0.59800  Biso   1.000  H
  H234     1.0000 0.90200  0.67150  0.54960  Biso   1.000  H
  H235     1.0000 0.90200  0.45040  0.67150  Biso   1.000  H
  H236     1.0000 0.09800  0.54960  0.67150  Biso   1.000  H
  H237     1.0000 0.04960  0.32850  0.40200  Biso   1.000  H
  H238     1.0000 0.04960  0.67150  0.59800  Biso   1.000  H
  H239     1.0000 0.82850  0.59800  0.45040  Biso   1.000  H
  H240     1.0000 0.17150  0.59800  0.54960  Biso   1.000  H
  H241     1.0000 0.45040  0.90200  0.32850  Biso   1.000  H
  H242     1.0000 0.59800  0.95040  0.32850  Biso   1.000  H
  H243     1.0000 0.54960  0.09800  0.32850  Biso   1.000  H
  H244     1.0000 0.40200  0.04960  0.32850  Biso   1.000  H
  H245     1.0000 0.45040  0.17150  0.40200  Biso   1.000  H
  H246     1.0000 0.45040  0.09800  0.67150  Biso   1.000  H
  H247     1.0000 0.45040  0.82850  0.59800  Biso   1.000  H
  H248     1.0000 0.32850  0.90200  0.54960  Biso   1.000  H
  H249     1.0000 0.54960  0.90200  0.67150  Biso   1.000  H
  H250     1.0000 0.67150  0.90200  0.45040  Biso   1.000  H
  H251     1.0000 0.32850  0.95040  0.40200  Biso   1.000  H
  H252     1.0000 0.40200  0.82850  0.45040  Biso   1.000  H
  H253     1.0000 0.59800  0.17150  0.45040  Biso   1.000  H
  H254     1.0000 0.32850  0.04960  0.59800  Biso   1.000  H
  H255     1.0000 0.59800  0.82850  0.54960  Biso   1.000  H
  H256     1.0000 0.67150  0.04960  0.40200  Biso   1.000  H
  H257     1.0000 0.67150  0.95040  0.59800  Biso   1.000  H
  H258     1.0000 0.40200  0.17150  0.54960  Biso   1.000  H
  H259     1.0000 0.40200  0.95040  0.67150  Biso   1.000  H
  H260     1.0000 0.59800  0.04960  0.67150  Biso   1.000  H
  H261     1.0000 0.54960  0.82850  0.40200  Biso   1.000  H
  H262     1.0000 0.54960  0.17150  0.59800  Biso   1.000  H
  H263     1.0000 0.32850  0.09800  0.45040  Biso   1.000  H
  H264     1.0000 0.67150  0.09800  0.54960  Biso   1.000  H
  H265     1.0000 0.45040  0.40200  0.82850  Biso   1.000  H
  H266     1.0000 0.59800  0.45040  0.82850  Biso   1.000  H
  H267     1.0000 0.54960  0.59800  0.82850  Biso   1.000  H
  H268     1.0000 0.40200  0.54960  0.82850  Biso   1.000  H
  H269     1.0000 0.45040  0.67150  0.90200  Biso   1.000  H
  H270     1.0000 0.45040  0.59800  0.17150  Biso   1.000  H
  H271     1.0000 0.45040  0.32850  0.09800  Biso   1.000  H
  H272     1.0000 0.32850  0.40200  0.04960  Biso   1.000  H
  H273     1.0000 0.54960  0.40200  0.17150  Biso   1.000  H
  H274     1.0000 0.67150  0.40200  0.95040  Biso   1.000  H
  H275     1.0000 0.32850  0.45040  0.90200  Biso   1.000  H
  H276     1.0000 0.40200  0.32850  0.95040  Biso   1.000  H
  H277     1.0000 0.59800  0.67150  0.95040  Biso   1.000  H
  H278     1.0000 0.32850  0.54960  0.09800  Biso   1.000  H
  H279     1.0000 0.59800  0.32850  0.04960  Biso   1.000  H
  H280     1.0000 0.67150  0.54960  0.90200  Biso   1.000  H
  H281     1.0000 0.67150  0.45040  0.09800  Biso   1.000  H
  H282     1.0000 0.40200  0.67150  0.04960  Biso   1.000  H
  H283     1.0000 0.40200  0.45040  0.17150  Biso   1.000  H
  H284     1.0000 0.59800  0.54960  0.17150  Biso   1.000  H
  H285     1.0000 0.54960  0.32850  0.90200  Biso   1.000  H
  H286     1.0000 0.54960  0.67150  0.09800  Biso   1.000  H
  H287     1.0000 0.32850  0.59800  0.95040  Biso   1.000  H
  H288     1.0000 0.67150  0.59800  0.04960  Biso   1.000  H
  C673     1.0000 0.07456  0.07456  0.17510  Biso   1.000  C
  C674     1.0000 0.92544  0.07456  0.17510  Biso   1.000  C
  C675     1.0000 0.92544  0.92544  0.17510  Biso   1.000  C
  C676     1.0000 0.07456  0.92544  0.17510  Biso   1.000  C
  C677     1.0000 0.07456  0.82490  0.07456  Biso   1.000  C
  C678     1.0000 0.07456  0.92544  0.82490  Biso   1.000  C
  C679     1.0000 0.07456  0.17510  0.92544  Biso   1.000  C
  C680     1.0000 0.17510  0.07456  0.92544  Biso   1.000  C
  C681     1.0000 0.92544  0.07456  0.82490  Biso   1.000  C
  C682     1.0000 0.82490  0.07456  0.07456  Biso   1.000  C
  C683     1.0000 0.17510  0.07456  0.07456  Biso   1.000  C
  C684     1.0000 0.07456  0.17510  0.07456  Biso   1.000  C
  C685     1.0000 0.92544  0.82490  0.07456  Biso   1.000  C
  C686     1.0000 0.17510  0.92544  0.92544  Biso   1.000  C
  C687     1.0000 0.92544  0.17510  0.92544  Biso   1.000  C
  C688     1.0000 0.82490  0.92544  0.07456  Biso   1.000  C
  C689     1.0000 0.82490  0.07456  0.92544  Biso   1.000  C
  C690     1.0000 0.07456  0.82490  0.92544  Biso   1.000  C
  C691     1.0000 0.07456  0.07456  0.82490  Biso   1.000  C
  C692     1.0000 0.92544  0.92544  0.82490  Biso   1.000  C
  C693     1.0000 0.92544  0.17510  0.07456  Biso   1.000  C
  C694     1.0000 0.92544  0.82490  0.92544  Biso   1.000  C
  C695     1.0000 0.17510  0.92544  0.07456  Biso   1.000  C
  C696     1.0000 0.82490  0.92544  0.92544  Biso   1.000  C
  C697     1.0000 0.07456  0.57456  0.67510  Biso   1.000  C
  C698     1.0000 0.92544  0.57456  0.67510  Biso   1.000  C
  C699     1.0000 0.92544  0.42544  0.67510  Biso   1.000  C
  C700     1.0000 0.07456  0.42544  0.67510  Biso   1.000  C
  C701     1.0000 0.07456  0.32490  0.57456  Biso   1.000  C
  C702     1.0000 0.07456  0.42544  0.32490  Biso   1.000  C
  C703     1.0000 0.07456  0.67510  0.42544  Biso   1.000  C
  C704     1.0000 0.17510  0.57456  0.42544  Biso   1.000  C
  C705     1.0000 0.92544  0.57456  0.32490  Biso   1.000  C
  C706     1.0000 0.82490  0.57456  0.57456  Biso   1.000  C
  C707     1.0000 0.17510  0.57456  0.57456  Biso   1.000  C
  C708     1.0000 0.07456  0.67510  0.57456  Biso   1.000  C
  C709     1.0000 0.92544  0.32490  0.57456  Biso   1.000  C
  C710     1.0000 0.17510  0.42544  0.42544  Biso   1.000  C
  C711     1.0000 0.92544  0.67510  0.42544  Biso   1.000  C
  C712     1.0000 0.82490  0.42544  0.57456  Biso   1.000  C
  C713     1.0000 0.82490  0.57456  0.42544  Biso   1.000  C
  C714     1.0000 0.07456  0.32490  0.42544  Biso   1.000  C
  C715     1.0000 0.07456  0.57456  0.32490  Biso   1.000  C
  C716     1.0000 0.92544  0.42544  0.32490  Biso   1.000  C
  C717     1.0000 0.92544  0.67510  0.57456  Biso   1.000  C
  C718     1.0000 0.92544  0.32490  0.42544  Biso   1.000  C
  C719     1.0000 0.17510  0.42544  0.57456  Biso   1.000  C
  C720     1.0000 0.82490  0.42544  0.42544  Biso   1.000  C
  C721     1.0000 0.57456  0.07456  0.67510  Biso   1.000  C
  C722     1.0000 0.42544  0.07456  0.67510  Biso   1.000  C
  C723     1.0000 0.42544  0.92544  0.67510  Biso   1.000  C
  C724     1.0000 0.57456  0.92544  0.67510  Biso   1.000  C
  C725     1.0000 0.57456  0.82490  0.57456  Biso   1.000  C
  C726     1.0000 0.57456  0.92544  0.32490  Biso   1.000  C
  C727     1.0000 0.57456  0.17510  0.42544  Biso   1.000  C
  C728     1.0000 0.67510  0.07456  0.42544  Biso   1.000  C
  C729     1.0000 0.42544  0.07456  0.32490  Biso   1.000  C
  C730     1.0000 0.32490  0.07456  0.57456  Biso   1.000  C
  C731     1.0000 0.67510  0.07456  0.57456  Biso   1.000  C
  C732     1.0000 0.57456  0.17510  0.57456  Biso   1.000  C
  C733     1.0000 0.42544  0.82490  0.57456  Biso   1.000  C
  C734     1.0000 0.67510  0.92544  0.42544  Biso   1.000  C
  C735     1.0000 0.42544  0.17510  0.42544  Biso   1.000  C
  C736     1.0000 0.32490  0.92544  0.57456  Biso   1.000  C
  C737     1.0000 0.32490  0.07456  0.42544  Biso   1.000  C
  C738     1.0000 0.57456  0.82490  0.42544  Biso   1.000  C
  C739     1.0000 0.57456  0.07456  0.32490  Biso   1.000  C
  C740     1.0000 0.42544  0.92544  0.32490  Biso   1.000  C
  C741     1.0000 0.42544  0.17510  0.57456  Biso   1.000  C
  C742     1.0000 0.42544  0.82490  0.42544  Biso   1.000  C
  C743     1.0000 0.67510  0.92544  0.57456  Biso   1.000  C
  C744     1.0000 0.32490  0.92544  0.42544  Biso   1.000  C
  C745     1.0000 0.57456  0.57456  0.17510  Biso   1.000  C
  C746     1.0000 0.42544  0.57456  0.17510  Biso   1.000  C
  C747     1.0000 0.42544  0.42544  0.17510  Biso   1.000  C
  C748     1.0000 0.57456  0.42544  0.17510  Biso   1.000  C
  C749     1.0000 0.57456  0.32490  0.07456  Biso   1.000  C
  C750     1.0000 0.57456  0.42544  0.82490  Biso   1.000  C
  C751     1.0000 0.57456  0.67510  0.92544  Biso   1.000  C
  C752     1.0000 0.67510  0.57456  0.92544  Biso   1.000  C
  C753     1.0000 0.42544  0.57456  0.82490  Biso   1.000  C
  C754     1.0000 0.32490  0.57456  0.07456  Biso   1.000  C
  C755     1.0000 0.67510  0.57456  0.07456  Biso   1.000  C
  C756     1.0000 0.57456  0.67510  0.07456  Biso   1.000  C
  C757     1.0000 0.42544  0.32490  0.07456  Biso   1.000  C
  C758     1.0000 0.67510  0.42544  0.92544  Biso   1.000  C
  C759     1.0000 0.42544  0.67510  0.92544  Biso   1.000  C
  C760     1.0000 0.32490  0.42544  0.07456  Biso   1.000  C
  C761     1.0000 0.32490  0.57456  0.92544  Biso   1.000  C
  C762     1.0000 0.57456  0.32490  0.92544  Biso   1.000  C
  C763     1.0000 0.57456  0.57456  0.82490  Biso   1.000  C
  C764     1.0000 0.42544  0.42544  0.82490  Biso   1.000  C
  C765     1.0000 0.42544  0.67510  0.07456  Biso   1.000  C
  C766     1.0000 0.42544  0.32490  0.92544  Biso   1.000  C
  C767     1.0000 0.67510  0.42544  0.07456  Biso   1.000  C
  C768     1.0000 0.32490  0.42544  0.92544  Biso   1.000  C
  C769     1.0000 0.08200  0.08200  0.19690  Biso   1.000  C
  C770     1.0000 0.91800  0.08200  0.19690  Biso   1.000  C
  C771     1.0000 0.91800  0.91800  0.19690  Biso   1.000  C
  C772     1.0000 0.08200  0.91800  0.19690  Biso   1.000  C
  C773     1.0000 0.08200  0.80310  0.08200  Biso   1.000  C
  C774     1.0000 0.08200  0.91800  0.80310  Biso   1.000  C
  C775     1.0000 0.08200  0.19690  0.91800  Biso   1.000  C
  C776     1.0000 0.19690  0.08200  0.91800  Biso   1.000  C
  C777     1.0000 0.91800  0.08200  0.80310  Biso   1.000  C
  C778     1.0000 0.80310  0.08200  0.08200  Biso   1.000  C
  C779     1.0000 0.19690  0.08200  0.08200  Biso   1.000  C
  C780     1.0000 0.08200  0.19690  0.08200  Biso   1.000  C
  C781     1.0000 0.91800  0.80310  0.08200  Biso   1.000  C
  C782     1.0000 0.19690  0.91800  0.91800  Biso   1.000  C
  C783     1.0000 0.91800  0.19690  0.91800  Biso   1.000  C
  C784     1.0000 0.80310  0.91800  0.08200  Biso   1.000  C
  C785     1.0000 0.80310  0.08200  0.91800  Biso   1.000  C
  C786     1.0000 0.08200  0.80310  0.91800  Biso   1.000  C
  C787     1.0000 0.08200  0.08200  0.80310  Biso   1.000  C
  C788     1.0000 0.91800  0.91800  0.80310  Biso   1.000  C
  C789     1.0000 0.91800  0.19690  0.08200  Biso   1.000  C
  C790     1.0000 0.91800  0.80310  0.91800  Biso   1.000  C
  C791     1.0000 0.19690  0.91800  0.08200  Biso   1.000  C
  C792     1.0000 0.80310  0.91800  0.91800  Biso   1.000  C
  C793     1.0000 0.08200  0.58200  0.69690  Biso   1.000  C
  C794     1.0000 0.91800  0.58200  0.69690  Biso   1.000  C
  C795     1.0000 0.91800  0.41800  0.69690  Biso   1.000  C
  C796     1.0000 0.08200  0.41800  0.69690  Biso   1.000  C
  C797     1.0000 0.08200  0.30310  0.58200  Biso   1.000  C
  C798     1.0000 0.08200  0.41800  0.30310  Biso   1.000  C
  C799     1.0000 0.08200  0.69690  0.41800  Biso   1.000  C
  C800     1.0000 0.19690  0.58200  0.41800  Biso   1.000  C
  C801     1.0000 0.91800  0.58200  0.30310  Biso   1.000  C
  C802     1.0000 0.80310  0.58200  0.58200  Biso   1.000  C
  C803     1.0000 0.19690  0.58200  0.58200  Biso   1.000  C
  C804     1.0000 0.08200  0.69690  0.58200  Biso   1.000  C
  C805     1.0000 0.91800  0.30310  0.58200  Biso   1.000  C
  C806     1.0000 0.19690  0.41800  0.41800  Biso   1.000  C
  C807     1.0000 0.91800  0.69690  0.41800  Biso   1.000  C
  C808     1.0000 0.80310  0.41800  0.58200  Biso   1.000  C
  C809     1.0000 0.80310  0.58200  0.41800  Biso   1.000  C
  C810     1.0000 0.08200  0.30310  0.41800  Biso   1.000  C
  C811     1.0000 0.08200  0.58200  0.30310  Biso   1.000  C
  C812     1.0000 0.91800  0.41800  0.30310  Biso   1.000  C
  C813     1.0000 0.91800  0.69690  0.58200  Biso   1.000  C
  C814     1.0000 0.91800  0.30310  0.41800  Biso   1.000  C
  C815     1.0000 0.19690  0.41800  0.58200  Biso   1.000  C
  C816     1.0000 0.80310  0.41800  0.41800  Biso   1.000  C
  C817     1.0000 0.58200  0.08200  0.69690  Biso   1.000  C
  C818     1.0000 0.41800  0.08200  0.69690  Biso   1.000  C
  C819     1.0000 0.41800  0.91800  0.69690  Biso   1.000  C
  C820     1.0000 0.58200  0.91800  0.69690  Biso   1.000  C
  C821     1.0000 0.58200  0.80310  0.58200  Biso   1.000  C
  C822     1.0000 0.58200  0.91800  0.30310  Biso   1.000  C
  C823     1.0000 0.58200  0.19690  0.41800  Biso   1.000  C
  C824     1.0000 0.69690  0.08200  0.41800  Biso   1.000  C
  C825     1.0000 0.41800  0.08200  0.30310  Biso   1.000  C
  C826     1.0000 0.30310  0.08200  0.58200  Biso   1.000  C
  C827     1.0000 0.69690  0.08200  0.58200  Biso   1.000  C
  C828     1.0000 0.58200  0.19690  0.58200  Biso   1.000  C
  C829     1.0000 0.41800  0.80310  0.58200  Biso   1.000  C
  C830     1.0000 0.69690  0.91800  0.41800  Biso   1.000  C
  C831     1.0000 0.41800  0.19690  0.41800  Biso   1.000  C
  C832     1.0000 0.30310  0.91800  0.58200  Biso   1.000  C
  C833     1.0000 0.30310  0.08200  0.41800  Biso   1.000  C
  C834     1.0000 0.58200  0.80310  0.41800  Biso   1.000  C
  C835     1.0000 0.58200  0.08200  0.30310  Biso   1.000  C
  C836     1.0000 0.41800  0.91800  0.30310  Biso   1.000  C
  C837     1.0000 0.41800  0.19690  0.58200  Biso   1.000  C
  C838     1.0000 0.41800  0.80310  0.41800  Biso   1.000  C
  C839     1.0000 0.69690  0.91800  0.58200  Biso   1.000  C
  C840     1.0000 0.30310  0.91800  0.41800  Biso   1.000  C
  C841     1.0000 0.58200  0.58200  0.19690  Biso   1.000  C
  C842     1.0000 0.41800  0.58200  0.19690  Biso   1.000  C
  C843     1.0000 0.41800  0.41800  0.19690  Biso   1.000  C
  C844     1.0000 0.58200  0.41800  0.19690  Biso   1.000  C
  C845     1.0000 0.58200  0.30310  0.08200  Biso   1.000  C
  C846     1.0000 0.58200  0.41800  0.80310  Biso   1.000  C
  C847     1.0000 0.58200  0.69690  0.91800  Biso   1.000  C
  C848     1.0000 0.69690  0.58200  0.91800  Biso   1.000  C
  C849     1.0000 0.41800  0.58200  0.80310  Biso   1.000  C
  C850     1.0000 0.30310  0.58200  0.08200  Biso   1.000  C
  C851     1.0000 0.69690  0.58200  0.08200  Biso   1.000  C
  C852     1.0000 0.58200  0.69690  0.08200  Biso   1.000  C
  C853     1.0000 0.41800  0.30310  0.08200  Biso   1.000  C
  C854     1.0000 0.69690  0.41800  0.91800  Biso   1.000  C
  C855     1.0000 0.41800  0.69690  0.91800  Biso   1.000  C
  C856     1.0000 0.30310  0.41800  0.08200  Biso   1.000  C
  C857     1.0000 0.30310  0.58200  0.91800  Biso   1.000  C
  C858     1.0000 0.58200  0.30310  0.91800  Biso   1.000  C
  C859     1.0000 0.58200  0.58200  0.80310  Biso   1.000  C
  C860     1.0000 0.41800  0.41800  0.80310  Biso   1.000  C
  C861     1.0000 0.41800  0.69690  0.08200  Biso   1.000  C
  C862     1.0000 0.41800  0.30310  0.91800  Biso   1.000  C
  C863     1.0000 0.69690  0.41800  0.08200  Biso   1.000  C
  C864     1.0000 0.30310  0.41800  0.91800  Biso   1.000  C
  C865     1.0000 0.08710  0.08710  0.21490  Biso   1.000  C
  C866     1.0000 0.91290  0.08710  0.21490  Biso   1.000  C
  C867     1.0000 0.91290  0.91290  0.21490  Biso   1.000  C
  C868     1.0000 0.08710  0.91290  0.21490  Biso   1.000  C
  C869     1.0000 0.08710  0.78510  0.08710  Biso   1.000  C
  C870     1.0000 0.08710  0.91290  0.78510  Biso   1.000  C
  C871     1.0000 0.08710  0.21490  0.91290  Biso   1.000  C
  C872     1.0000 0.21490  0.08710  0.91290  Biso   1.000  C
  C873     1.0000 0.91290  0.08710  0.78510  Biso   1.000  C
  C874     1.0000 0.78510  0.08710  0.08710  Biso   1.000  C
  C875     1.0000 0.21490  0.08710  0.08710  Biso   1.000  C
  C876     1.0000 0.08710  0.21490  0.08710  Biso   1.000  C
  C877     1.0000 0.91290  0.78510  0.08710  Biso   1.000  C
  C878     1.0000 0.21490  0.91290  0.91290  Biso   1.000  C
  C879     1.0000 0.91290  0.21490  0.91290  Biso   1.000  C
  C880     1.0000 0.78510  0.91290  0.08710  Biso   1.000  C
  C881     1.0000 0.78510  0.08710  0.91290  Biso   1.000  C
  C882     1.0000 0.08710  0.78510  0.91290  Biso   1.000  C
  C883     1.0000 0.08710  0.08710  0.78510  Biso   1.000  C
  C884     1.0000 0.91290  0.91290  0.78510  Biso   1.000  C
  C885     1.0000 0.91290  0.21490  0.08710  Biso   1.000  C
  C886     1.0000 0.91290  0.78510  0.91290  Biso   1.000  C
  C887     1.0000 0.21490  0.91290  0.08710  Biso   1.000  C
  C888     1.0000 0.78510  0.91290  0.91290  Biso   1.000  C
  C889     1.0000 0.08710  0.58710  0.71490  Biso   1.000  C
  C890     1.0000 0.91290  0.58710  0.71490  Biso   1.000  C
  C891     1.0000 0.91290  0.41290  0.71490  Biso   1.000  C
  C892     1.0000 0.08710  0.41290  0.71490  Biso   1.000  C
  C893     1.0000 0.08710  0.28510  0.58710  Biso   1.000  C
  C894     1.0000 0.08710  0.41290  0.28510  Biso   1.000  C
  C895     1.0000 0.08710  0.71490  0.41290  Biso   1.000  C
  C896     1.0000 0.21490  0.58710  0.41290  Biso   1.000  C
  C897     1.0000 0.91290  0.58710  0.28510  Biso   1.000  C
  C898     1.0000 0.78510  0.58710  0.58710  Biso   1.000  C
  C899     1.0000 0.21490  0.58710  0.58710  Biso   1.000  C
  C900     1.0000 0.08710  0.71490  0.58710  Biso   1.000  C
  C901     1.0000 0.91290  0.28510  0.58710  Biso   1.000  C
  C902     1.0000 0.21490  0.41290  0.41290  Biso   1.000  C
  C903     1.0000 0.91290  0.71490  0.41290  Biso   1.000  C
  C904     1.0000 0.78510  0.41290  0.58710  Biso   1.000  C
  C905     1.0000 0.78510  0.58710  0.41290  Biso   1.000  C
  C906     1.0000 0.08710  0.28510  0.41290  Biso   1.000  C
  C907     1.0000 0.08710  0.58710  0.28510  Biso   1.000  C
  C908     1.0000 0.91290  0.41290  0.28510  Biso   1.000  C
  C909     1.0000 0.91290  0.71490  0.58710  Biso   1.000  C
  C910     1.0000 0.91290  0.28510  0.41290  Biso   1.000  C
  C911     1.0000 0.21490  0.41290  0.58710  Biso   1.000  C
  C912     1.0000 0.78510  0.41290  0.41290  Biso   1.000  C
  C913     1.0000 0.58710  0.08710  0.71490  Biso   1.000  C
  C914     1.0000 0.41290  0.08710  0.71490  Biso   1.000  C
  C915     1.0000 0.41290  0.91290  0.71490  Biso   1.000  C
  C916     1.0000 0.58710  0.91290  0.71490  Biso   1.000  C
  C917     1.0000 0.58710  0.78510  0.58710  Biso   1.000  C
  C918     1.0000 0.58710  0.91290  0.28510  Biso   1.000  C
  C919     1.0000 0.58710  0.21490  0.41290  Biso   1.000  C
  C920     1.0000 0.71490  0.08710  0.41290  Biso   1.000  C
  C921     1.0000 0.41290  0.08710  0.28510  Biso   1.000  C
  C922     1.0000 0.28510  0.08710  0.58710  Biso   1.000  C
  C923     1.0000 0.71490  0.08710  0.58710  Biso   1.000  C
  C924     1.0000 0.58710  0.21490  0.58710  Biso   1.000  C
  C925     1.0000 0.41290  0.78510  0.58710  Biso   1.000  C
  C926     1.0000 0.71490  0.91290  0.41290  Biso   1.000  C
  C927     1.0000 0.41290  0.21490  0.41290  Biso   1.000  C
  C928     1.0000 0.28510  0.91290  0.58710  Biso   1.000  C
  C929     1.0000 0.28510  0.08710  0.41290  Biso   1.000  C
  C930     1.0000 0.58710  0.78510  0.41290  Biso   1.000  C
  C931     1.0000 0.58710  0.08710  0.28510  Biso   1.000  C
  C932     1.0000 0.41290  0.91290  0.28510  Biso   1.000  C
  C933     1.0000 0.41290  0.21490  0.58710  Biso   1.000  C
  C934     1.0000 0.41290  0.78510  0.41290  Biso   1.000  C
  C935     1.0000 0.71490  0.91290  0.58710  Biso   1.000  C
  C936     1.0000 0.28510  0.91290  0.41290  Biso   1.000  C
  C937     1.0000 0.58710  0.58710  0.21490  Biso   1.000  C
  C938     1.0000 0.41290  0.58710  0.21490  Biso   1.000  C
  C939     1.0000 0.41290  0.41290  0.21490  Biso   1.000  C
  C940     1.0000 0.58710  0.41290  0.21490  Biso   1.000  C
  C941     1.0000 0.58710  0.28510  0.08710  Biso   1.000  C
  C942     1.0000 0.58710  0.41290  0.78510  Biso   1.000  C
  C943     1.0000 0.58710  0.71490  0.91290  Biso   1.000  C
  C944     1.0000 0.71490  0.58710  0.91290  Biso   1.000  C
  C945     1.0000 0.41290  0.58710  0.78510  Biso   1.000  C
  C946     1.0000 0.28510  0.58710  0.08710  Biso   1.000  C
  C947     1.0000 0.71490  0.58710  0.08710  Biso   1.000  C
  C948     1.0000 0.58710  0.71490  0.08710  Biso   1.000  C
  C949     1.0000 0.41290  0.28510  0.08710  Biso   1.000  C
  C950     1.0000 0.71490  0.41290  0.91290  Biso   1.000  C
  C951     1.0000 0.41290  0.71490  0.91290  Biso   1.000  C
  C952     1.0000 0.28510  0.41290  0.08710  Biso   1.000  C
  C953     1.0000 0.28510  0.58710  0.91290  Biso   1.000  C
  C954     1.0000 0.58710  0.28510  0.91290  Biso   1.000  C
  C955     1.0000 0.58710  0.58710  0.78510  Biso   1.000  C
  C956     1.0000 0.41290  0.41290  0.78510  Biso   1.000  C
  C957     1.0000 0.41290  0.71490  0.08710  Biso   1.000  C
  C958     1.0000 0.41290  0.28510  0.91290  Biso   1.000  C
  C959     1.0000 0.71490  0.41290  0.08710  Biso   1.000  C
  C960     1.0000 0.28510  0.41290  0.91290  Biso   1.000  C
  C961     1.0000 0.09450  0.09450  0.23650  Biso   1.000  C
  C962     1.0000 0.90550  0.09450  0.23650  Biso   1.000  C
  C963     1.0000 0.90550  0.90550  0.23650  Biso   1.000  C
  C964     1.0000 0.09450  0.90550  0.23650  Biso   1.000  C
  C965     1.0000 0.09450  0.76350  0.09450  Biso   1.000  C
  C966     1.0000 0.09450  0.90550  0.76350  Biso   1.000  C
  C967     1.0000 0.09450  0.23650  0.90550  Biso   1.000  C
  C968     1.0000 0.23650  0.09450  0.90550  Biso   1.000  C
  C969     1.0000 0.90550  0.09450  0.76350  Biso   1.000  C
  C970     1.0000 0.76350  0.09450  0.09450  Biso   1.000  C
  C971     1.0000 0.23650  0.09450  0.09450  Biso   1.000  C
  C972     1.0000 0.09450  0.23650  0.09450  Biso   1.000  C
  C973     1.0000 0.90550  0.76350  0.09450  Biso   1.000  C
  C974     1.0000 0.23650  0.90550  0.90550  Biso   1.000  C
  C975     1.0000 0.90550  0.23650  0.90550  Biso   1.000  C
  C976     1.0000 0.76350  0.90550  0.09450  Biso   1.000  C
  C977     1.0000 0.76350  0.09450  0.90550  Biso   1.000  C
  C978     1.0000 0.09450  0.76350  0.90550  Biso   1.000  C
  C979     1.0000 0.09450  0.09450  0.76350  Biso   1.000  C
  C980     1.0000 0.90550  0.90550  0.76350  Biso   1.000  C
  C981     1.0000 0.90550  0.23650  0.09450  Biso   1.000  C
  C982     1.0000 0.90550  0.76350  0.90550  Biso   1.000  C
  C983     1.0000 0.23650  0.90550  0.09450  Biso   1.000  C
  C984     1.0000 0.76350  0.90550  0.90550  Biso   1.000  C
  C985     1.0000 0.09450  0.59450  0.73650  Biso   1.000  C
  C986     1.0000 0.90550  0.59450  0.73650  Biso   1.000  C
  C987     1.0000 0.90550  0.40550  0.73650  Biso   1.000  C
  C988     1.0000 0.09450  0.40550  0.73650  Biso   1.000  C
  C989     1.0000 0.09450  0.26350  0.59450  Biso   1.000  C
  C990     1.0000 0.09450  0.40550  0.26350  Biso   1.000  C
  C991     1.0000 0.09450  0.73650  0.40550  Biso   1.000  C
  C992     1.0000 0.23650  0.59450  0.40550  Biso   1.000  C
  C993     1.0000 0.90550  0.59450  0.26350  Biso   1.000  C
  C994     1.0000 0.76350  0.59450  0.59450  Biso   1.000  C
  C995     1.0000 0.23650  0.59450  0.59450  Biso   1.000  C
  C996     1.0000 0.09450  0.73650  0.59450  Biso   1.000  C
  C997     1.0000 0.90550  0.26350  0.59450  Biso   1.000  C
  C998     1.0000 0.23650  0.40550  0.40550  Biso   1.000  C
  C999     1.0000 0.90550  0.73650  0.40550  Biso   1.000  C
  C1000    1.0000 0.76350  0.40550  0.59450  Biso   1.000  C
  C1001    1.0000 0.76350  0.59450  0.40550  Biso   1.000  C
  C1002    1.0000 0.09450  0.26350  0.40550  Biso   1.000  C
  C1003    1.0000 0.09450  0.59450  0.26350  Biso   1.000  C
  C1004    1.0000 0.90550  0.40550  0.26350  Biso   1.000  C
  C1005    1.0000 0.90550  0.73650  0.59450  Biso   1.000  C
  C1006    1.0000 0.90550  0.26350  0.40550  Biso   1.000  C
  C1007    1.0000 0.23650  0.40550  0.59450  Biso   1.000  C
  C1008    1.0000 0.76350  0.40550  0.40550  Biso   1.000  C
  C1009    1.0000 0.59450  0.09450  0.73650  Biso   1.000  C
  C1010    1.0000 0.40550  0.09450  0.73650  Biso   1.000  C
  C1011    1.0000 0.40550  0.90550  0.73650  Biso   1.000  C
  C1012    1.0000 0.59450  0.90550  0.73650  Biso   1.000  C
  C1013    1.0000 0.59450  0.76350  0.59450  Biso   1.000  C
  C1014    1.0000 0.59450  0.90550  0.26350  Biso   1.000  C
  C1015    1.0000 0.59450  0.23650  0.40550  Biso   1.000  C
  C1016    1.0000 0.73650  0.09450  0.40550  Biso   1.000  C
  C1017    1.0000 0.40550  0.09450  0.26350  Biso   1.000  C
  C1018    1.0000 0.26350  0.09450  0.59450  Biso   1.000  C
  C1019    1.0000 0.73650  0.09450  0.59450  Biso   1.000  C
  C1020    1.0000 0.59450  0.23650  0.59450  Biso   1.000  C
  C1021    1.0000 0.40550  0.76350  0.59450  Biso   1.000  C
  C1022    1.0000 0.73650  0.90550  0.40550  Biso   1.000  C
  C1023    1.0000 0.40550  0.23650  0.40550  Biso   1.000  C
  C1024    1.0000 0.26350  0.90550  0.59450  Biso   1.000  C
  C1025    1.0000 0.26350  0.09450  0.40550  Biso   1.000  C
  C1026    1.0000 0.59450  0.76350  0.40550  Biso   1.000  C
  C1027    1.0000 0.59450  0.09450  0.26350  Biso   1.000  C
  C1028    1.0000 0.40550  0.90550  0.26350  Biso   1.000  C
  C1029    1.0000 0.40550  0.23650  0.59450  Biso   1.000  C
  C1030    1.0000 0.40550  0.76350  0.40550  Biso   1.000  C
  C1031    1.0000 0.73650  0.90550  0.59450  Biso   1.000  C
  C1032    1.0000 0.26350  0.90550  0.40550  Biso   1.000  C
  C1033    1.0000 0.59450  0.59450  0.23650  Biso   1.000  C
  C1034    1.0000 0.40550  0.59450  0.23650  Biso   1.000  C
  C1035    1.0000 0.40550  0.40550  0.23650  Biso   1.000  C
  C1036    1.0000 0.59450  0.40550  0.23650  Biso   1.000  C
  C1037    1.0000 0.59450  0.26350  0.09450  Biso   1.000  C
  C1038    1.0000 0.59450  0.40550  0.76350  Biso   1.000  C
  C1039    1.0000 0.59450  0.73650  0.90550  Biso   1.000  C
  C1040    1.0000 0.73650  0.59450  0.90550  Biso   1.000  C
  C1041    1.0000 0.40550  0.59450  0.76350  Biso   1.000  C
  C1042    1.0000 0.26350  0.59450  0.09450  Biso   1.000  C
  C1043    1.0000 0.73650  0.59450  0.09450  Biso   1.000  C
  C1044    1.0000 0.59450  0.73650  0.09450  Biso   1.000  C
  C1045    1.0000 0.40550  0.26350  0.09450  Biso   1.000  C
  C1046    1.0000 0.73650  0.40550  0.90550  Biso   1.000  C
  C1047    1.0000 0.40550  0.73650  0.90550  Biso   1.000  C
  C1048    1.0000 0.26350  0.40550  0.09450  Biso   1.000  C
  C1049    1.0000 0.26350  0.59450  0.90550  Biso   1.000  C
  C1050    1.0000 0.59450  0.26350  0.90550  Biso   1.000  C
  C1051    1.0000 0.59450  0.59450  0.76350  Biso   1.000  C
  C1052    1.0000 0.40550  0.40550  0.76350  Biso   1.000  C
  C1053    1.0000 0.40550  0.73650  0.09450  Biso   1.000  C
  C1054    1.0000 0.40550  0.26350  0.90550  Biso   1.000  C
  C1055    1.0000 0.73650  0.40550  0.09450  Biso   1.000  C
  C1056    1.0000 0.26350  0.40550  0.90550  Biso   1.000  C
  C1057    1.0000 0.08380  0.11250  0.24710  Biso   1.000  C
  C1058    1.0000 0.88750  0.08380  0.24710  Biso   1.000  C
  C1059    1.0000 0.91620  0.88750  0.24710  Biso   1.000  C
  C1060    1.0000 0.11250  0.91620  0.24710  Biso   1.000  C
  C1061    1.0000 0.08380  0.75290  0.11250  Biso   1.000  C
  C1062    1.0000 0.08380  0.88750  0.75290  Biso   1.000  C
  C1063    1.0000 0.08380  0.24710  0.88750  Biso   1.000  C
  C1064    1.0000 0.24710  0.11250  0.91620  Biso   1.000  C
  C1065    1.0000 0.91620  0.11250  0.75290  Biso   1.000  C
  C1066    1.0000 0.75290  0.11250  0.08380  Biso   1.000  C
  C1067    1.0000 0.24710  0.08380  0.11250  Biso   1.000  C
  C1068    1.0000 0.11250  0.24710  0.08380  Biso   1.000  C
  C1069    1.0000 0.88750  0.75290  0.08380  Biso   1.000  C
  C1070    1.0000 0.24710  0.91620  0.88750  Biso   1.000  C
  C1071    1.0000 0.88750  0.24710  0.91620  Biso   1.000  C
  C1072    1.0000 0.75290  0.91620  0.11250  Biso   1.000  C
  C1073    1.0000 0.75290  0.08380  0.88750  Biso   1.000  C
  C1074    1.0000 0.11250  0.75290  0.91620  Biso   1.000  C
  C1075    1.0000 0.11250  0.08380  0.75290  Biso   1.000  C
  C1076    1.0000 0.88750  0.91620  0.75290  Biso   1.000  C
  C1077    1.0000 0.91620  0.24710  0.11250  Biso   1.000  C
  C1078    1.0000 0.91620  0.75290  0.88750  Biso   1.000  C
  C1079    1.0000 0.24710  0.88750  0.08380  Biso   1.000  C
  C1080    1.0000 0.75290  0.88750  0.91620  Biso   1.000  C
  C1081    1.0000 0.08380  0.61250  0.74710  Biso   1.000  C
  C1082    1.0000 0.88750  0.58380  0.74710  Biso   1.000  C
  C1083    1.0000 0.91620  0.38750  0.74710  Biso   1.000  C
  C1084    1.0000 0.11250  0.41620  0.74710  Biso   1.000  C
  C1085    1.0000 0.08380  0.25290  0.61250  Biso   1.000  C
  C1086    1.0000 0.08380  0.38750  0.25290  Biso   1.000  C
  C1087    1.0000 0.08380  0.74710  0.38750  Biso   1.000  C
  C1088    1.0000 0.24710  0.61250  0.41620  Biso   1.000  C
  C1089    1.0000 0.91620  0.61250  0.25290  Biso   1.000  C
  C1090    1.0000 0.75290  0.61250  0.58380  Biso   1.000  C
  C1091    1.0000 0.24710  0.58380  0.61250  Biso   1.000  C
  C1092    1.0000 0.11250  0.74710  0.58380  Biso   1.000  C
  C1093    1.0000 0.88750  0.25290  0.58380  Biso   1.000  C
  C1094    1.0000 0.24710  0.41620  0.38750  Biso   1.000  C
  C1095    1.0000 0.88750  0.74710  0.41620  Biso   1.000  C
  C1096    1.0000 0.75290  0.41620  0.61250  Biso   1.000  C
  C1097    1.0000 0.75290  0.58380  0.38750  Biso   1.000  C
  C1098    1.0000 0.11250  0.25290  0.41620  Biso   1.000  C
  C1099    1.0000 0.11250  0.58380  0.25290  Biso   1.000  C
  C1100    1.0000 0.88750  0.41620  0.25290  Biso   1.000  C
  C1101    1.0000 0.91620  0.74710  0.61250  Biso   1.000  C
  C1102    1.0000 0.91620  0.25290  0.38750  Biso   1.000  C
  C1103    1.0000 0.24710  0.38750  0.58380  Biso   1.000  C
  C1104    1.0000 0.75290  0.38750  0.41620  Biso   1.000  C
  C1105    1.0000 0.58380  0.11250  0.74710  Biso   1.000  C
  C1106    1.0000 0.38750  0.08380  0.74710  Biso   1.000  C
  C1107    1.0000 0.41620  0.88750  0.74710  Biso   1.000  C
  C1108    1.0000 0.61250  0.91620  0.74710  Biso   1.000  C
  C1109    1.0000 0.58380  0.75290  0.61250  Biso   1.000  C
  C1110    1.0000 0.58380  0.88750  0.25290  Biso   1.000  C
  C1111    1.0000 0.58380  0.24710  0.38750  Biso   1.000  C
  C1112    1.0000 0.74710  0.11250  0.41620  Biso   1.000  C
  C1113    1.0000 0.41620  0.11250  0.25290  Biso   1.000  C
  C1114    1.0000 0.25290  0.11250  0.58380  Biso   1.000  C
  C1115    1.0000 0.74710  0.08380  0.61250  Biso   1.000  C
  C1116    1.0000 0.61250  0.24710  0.58380  Biso   1.000  C
  C1117    1.0000 0.38750  0.75290  0.58380  Biso   1.000  C
  C1118    1.0000 0.74710  0.91620  0.38750  Biso   1.000  C
  C1119    1.0000 0.38750  0.24710  0.41620  Biso   1.000  C
  C1120    1.0000 0.25290  0.91620  0.61250  Biso   1.000  C
  C1121    1.0000 0.25290  0.08380  0.38750  Biso   1.000  C
  C1122    1.0000 0.61250  0.75290  0.41620  Biso   1.000  C
  C1123    1.0000 0.61250  0.08380  0.25290  Biso   1.000  C
  C1124    1.0000 0.38750  0.91620  0.25290  Biso   1.000  C
  C1125    1.0000 0.41620  0.24710  0.61250  Biso   1.000  C
  C1126    1.0000 0.41620  0.75290  0.38750  Biso   1.000  C
  C1127    1.0000 0.74710  0.88750  0.58380  Biso   1.000  C
  C1128    1.0000 0.25290  0.88750  0.41620  Biso   1.000  C
  C1129    1.0000 0.58380  0.61250  0.24710  Biso   1.000  C
  C1130    1.0000 0.38750  0.58380  0.24710  Biso   1.000  C
  C1131    1.0000 0.41620  0.38750  0.24710  Biso   1.000  C
  C1132    1.0000 0.61250  0.41620  0.24710  Biso   1.000  C
  C1133    1.0000 0.58380  0.25290  0.11250  Biso   1.000  C
  C1134    1.0000 0.58380  0.38750  0.75290  Biso   1.000  C
  C1135    1.0000 0.58380  0.74710  0.88750  Biso   1.000  C
  C1136    1.0000 0.74710  0.61250  0.91620  Biso   1.000  C
  C1137    1.0000 0.41620  0.61250  0.75290  Biso   1.000  C
  C1138    1.0000 0.25290  0.61250  0.08380  Biso   1.000  C
  C1139    1.0000 0.74710  0.58380  0.11250  Biso   1.000  C
  C1140    1.0000 0.61250  0.74710  0.08380  Biso   1.000  C
  C1141    1.0000 0.38750  0.25290  0.08380  Biso   1.000  C
  C1142    1.0000 0.74710  0.41620  0.88750  Biso   1.000  C
  C1143    1.0000 0.38750  0.74710  0.91620  Biso   1.000  C
  C1144    1.0000 0.25290  0.41620  0.11250  Biso   1.000  C
  C1145    1.0000 0.25290  0.58380  0.88750  Biso   1.000  C
  C1146    1.0000 0.61250  0.25290  0.91620  Biso   1.000  C
  C1147    1.0000 0.61250  0.58380  0.75290  Biso   1.000  C
  C1148    1.0000 0.38750  0.41620  0.75290  Biso   1.000  C
  C1149    1.0000 0.41620  0.74710  0.11250  Biso   1.000  C
  C1150    1.0000 0.41620  0.25290  0.88750  Biso   1.000  C
  C1151    1.0000 0.74710  0.38750  0.08380  Biso   1.000  C
  C1152    1.0000 0.25290  0.38750  0.91620  Biso   1.000  C
  C1153    1.0000 0.91620  0.88750  0.75290  Biso   1.000  C
  C1154    1.0000 0.11250  0.91620  0.75290  Biso   1.000  C
  C1155    1.0000 0.08380  0.11250  0.75290  Biso   1.000  C
  C1156    1.0000 0.88750  0.08380  0.75290  Biso   1.000  C
  C1157    1.0000 0.91620  0.24710  0.88750  Biso   1.000  C
  C1158    1.0000 0.91620  0.11250  0.24710  Biso   1.000  C
  C1159    1.0000 0.91620  0.75290  0.11250  Biso   1.000  C
  C1160    1.0000 0.75290  0.88750  0.08380  Biso   1.000  C
  C1161    1.0000 0.08380  0.88750  0.24710  Biso   1.000  C
  C1162    1.0000 0.24710  0.88750  0.91620  Biso   1.000  C
  C1163    1.0000 0.75290  0.91620  0.88750  Biso   1.000  C
  C1164    1.0000 0.88750  0.75290  0.91620  Biso   1.000  C
  C1165    1.0000 0.11250  0.24710  0.91620  Biso   1.000  C
  C1166    1.0000 0.75290  0.08380  0.11250  Biso   1.000  C
  C1167    1.0000 0.11250  0.75290  0.08380  Biso   1.000  C
  C1168    1.0000 0.24710  0.08380  0.88750  Biso   1.000  C
  C1169    1.0000 0.24710  0.91620  0.11250  Biso   1.000  C
  C1170    1.0000 0.88750  0.24710  0.08380  Biso   1.000  C
  C1171    1.0000 0.88750  0.91620  0.24710  Biso   1.000  C
  C1172    1.0000 0.11250  0.08380  0.24710  Biso   1.000  C
  C1173    1.0000 0.08380  0.75290  0.88750  Biso   1.000  C
  C1174    1.0000 0.08380  0.24710  0.11250  Biso   1.000  C
  C1175    1.0000 0.75290  0.11250  0.91620  Biso   1.000  C
  C1176    1.0000 0.24710  0.11250  0.08380  Biso   1.000  C
  C1177    1.0000 0.91620  0.38750  0.25290  Biso   1.000  C
  C1178    1.0000 0.11250  0.41620  0.25290  Biso   1.000  C
  C1179    1.0000 0.08380  0.61250  0.25290  Biso   1.000  C
  C1180    1.0000 0.88750  0.58380  0.25290  Biso   1.000  C
  C1181    1.0000 0.91620  0.74710  0.38750  Biso   1.000  C
  C1182    1.0000 0.91620  0.61250  0.74710  Biso   1.000  C
  C1183    1.0000 0.91620  0.25290  0.61250  Biso   1.000  C
  C1184    1.0000 0.75290  0.38750  0.58380  Biso   1.000  C
  C1185    1.0000 0.08380  0.38750  0.74710  Biso   1.000  C
  C1186    1.0000 0.24710  0.38750  0.41620  Biso   1.000  C
  C1187    1.0000 0.75290  0.41620  0.38750  Biso   1.000  C
  C1188    1.0000 0.88750  0.25290  0.41620  Biso   1.000  C
  C1189    1.0000 0.11250  0.74710  0.41620  Biso   1.000  C
  C1190    1.0000 0.75290  0.58380  0.61250  Biso   1.000  C
  C1191    1.0000 0.11250  0.25290  0.58380  Biso   1.000  C
  C1192    1.0000 0.24710  0.58380  0.38750  Biso   1.000  C
  C1193    1.0000 0.24710  0.41620  0.61250  Biso   1.000  C
  C1194    1.0000 0.88750  0.74710  0.58380  Biso   1.000  C
  C1195    1.0000 0.88750  0.41620  0.74710  Biso   1.000  C
  C1196    1.0000 0.11250  0.58380  0.74710  Biso   1.000  C
  C1197    1.0000 0.08380  0.25290  0.38750  Biso   1.000  C
  C1198    1.0000 0.08380  0.74710  0.61250  Biso   1.000  C
  C1199    1.0000 0.75290  0.61250  0.41620  Biso   1.000  C
  C1200    1.0000 0.24710  0.61250  0.58380  Biso   1.000  C
  C1201    1.0000 0.41620  0.88750  0.25290  Biso   1.000  C
  C1202    1.0000 0.61250  0.91620  0.25290  Biso   1.000  C
  C1203    1.0000 0.58380  0.11250  0.25290  Biso   1.000  C
  C1204    1.0000 0.38750  0.08380  0.25290  Biso   1.000  C
  C1205    1.0000 0.41620  0.24710  0.38750  Biso   1.000  C
  C1206    1.0000 0.41620  0.11250  0.74710  Biso   1.000  C
  C1207    1.0000 0.41620  0.75290  0.61250  Biso   1.000  C
  C1208    1.0000 0.25290  0.88750  0.58380  Biso   1.000  C
  C1209    1.0000 0.58380  0.88750  0.74710  Biso   1.000  C
  C1210    1.0000 0.74710  0.88750  0.41620  Biso   1.000  C
  C1211    1.0000 0.25290  0.91620  0.38750  Biso   1.000  C
  C1212    1.0000 0.38750  0.75290  0.41620  Biso   1.000  C
  C1213    1.0000 0.61250  0.24710  0.41620  Biso   1.000  C
  C1214    1.0000 0.25290  0.08380  0.61250  Biso   1.000  C
  C1215    1.0000 0.61250  0.75290  0.58380  Biso   1.000  C
  C1216    1.0000 0.74710  0.08380  0.38750  Biso   1.000  C
  C1217    1.0000 0.74710  0.91620  0.61250  Biso   1.000  C
  C1218    1.0000 0.38750  0.24710  0.58380  Biso   1.000  C
  C1219    1.0000 0.38750  0.91620  0.74710  Biso   1.000  C
  C1220    1.0000 0.61250  0.08380  0.74710  Biso   1.000  C
  C1221    1.0000 0.58380  0.75290  0.38750  Biso   1.000  C
  C1222    1.0000 0.58380  0.24710  0.61250  Biso   1.000  C
  C1223    1.0000 0.25290  0.11250  0.41620  Biso   1.000  C
  C1224    1.0000 0.74710  0.11250  0.58380  Biso   1.000  C
  C1225    1.0000 0.41620  0.38750  0.75290  Biso   1.000  C
  C1226    1.0000 0.61250  0.41620  0.75290  Biso   1.000  C
  C1227    1.0000 0.58380  0.61250  0.75290  Biso   1.000  C
  C1228    1.0000 0.38750  0.58380  0.75290  Biso   1.000  C
  C1229    1.0000 0.41620  0.74710  0.88750  Biso   1.000  C
  C1230    1.0000 0.41620  0.61250  0.24710  Biso   1.000  C
  C1231    1.0000 0.41620  0.25290  0.11250  Biso   1.000  C
  C1232    1.0000 0.25290  0.38750  0.08380  Biso   1.000  C
  C1233    1.0000 0.58380  0.38750  0.24710  Biso   1.000  C
  C1234    1.0000 0.74710  0.38750  0.91620  Biso   1.000  C
  C1235    1.0000 0.25290  0.41620  0.88750  Biso   1.000  C
  C1236    1.0000 0.38750  0.25290  0.91620  Biso   1.000  C
  C1237    1.0000 0.61250  0.74710  0.91620  Biso   1.000  C
  C1238    1.0000 0.25290  0.58380  0.11250  Biso   1.000  C
  C1239    1.0000 0.61250  0.25290  0.08380  Biso   1.000  C
  C1240    1.0000 0.74710  0.58380  0.88750  Biso   1.000  C
  C1241    1.0000 0.74710  0.41620  0.11250  Biso   1.000  C
  C1242    1.0000 0.38750  0.74710  0.08380  Biso   1.000  C
  C1243    1.0000 0.38750  0.41620  0.24710  Biso   1.000  C
  C1244    1.0000 0.61250  0.58380  0.24710  Biso   1.000  C
  C1245    1.0000 0.58380  0.25290  0.88750  Biso   1.000  C
  C1246    1.0000 0.58380  0.74710  0.11250  Biso   1.000  C
  C1247    1.0000 0.25290  0.61250  0.91620  Biso   1.000  C
  C1248    1.0000 0.74710  0.61250  0.08380  Biso   1.000  C
  H289     1.0000 0.07150  0.11990  0.23990  Biso   1.000  H
  H290     1.0000 0.88010  0.07150  0.23990  Biso   1.000  H
  H291     1.0000 0.92850  0.88010  0.23990  Biso   1.000  H
  H292     1.0000 0.11990  0.92850  0.23990  Biso   1.000  H
  H293     1.0000 0.07150  0.76010  0.11990  Biso   1.000  H
  H294     1.0000 0.07150  0.88010  0.76010  Biso   1.000  H
  H295     1.0000 0.07150  0.23990  0.88010  Biso   1.000  H
  H296     1.0000 0.23990  0.11990  0.92850  Biso   1.000  H
  H297     1.0000 0.92850  0.11990  0.76010  Biso   1.000  H
  H298     1.0000 0.76010  0.11990  0.07150  Biso   1.000  H
  H299     1.0000 0.23990  0.07150  0.11990  Biso   1.000  H
  H300     1.0000 0.11990  0.23990  0.07150  Biso   1.000  H
  H301     1.0000 0.88010  0.76010  0.07150  Biso   1.000  H
  H302     1.0000 0.23990  0.92850  0.88010  Biso   1.000  H
  H303     1.0000 0.88010  0.23990  0.92850  Biso   1.000  H
  H304     1.0000 0.76010  0.92850  0.11990  Biso   1.000  H
  H305     1.0000 0.76010  0.07150  0.88010  Biso   1.000  H
  H306     1.0000 0.11990  0.76010  0.92850  Biso   1.000  H
  H307     1.0000 0.11990  0.07150  0.76010  Biso   1.000  H
  H308     1.0000 0.88010  0.92850  0.76010  Biso   1.000  H
  H309     1.0000 0.92850  0.23990  0.11990  Biso   1.000  H
  H310     1.0000 0.92850  0.76010  0.88010  Biso   1.000  H
  H311     1.0000 0.23990  0.88010  0.07150  Biso   1.000  H
  H312     1.0000 0.76010  0.88010  0.92850  Biso   1.000  H
  H313     1.0000 0.07150  0.61990  0.73990  Biso   1.000  H
  H314     1.0000 0.88010  0.57150  0.73990  Biso   1.000  H
  H315     1.0000 0.92850  0.38010  0.73990  Biso   1.000  H
  H316     1.0000 0.11990  0.42850  0.73990  Biso   1.000  H
  H317     1.0000 0.07150  0.26010  0.61990  Biso   1.000  H
  H318     1.0000 0.07150  0.38010  0.26010  Biso   1.000  H
  H319     1.0000 0.07150  0.73990  0.38010  Biso   1.000  H
  H320     1.0000 0.23990  0.61990  0.42850  Biso   1.000  H
  H321     1.0000 0.92850  0.61990  0.26010  Biso   1.000  H
  H322     1.0000 0.76010  0.61990  0.57150  Biso   1.000  H
  H323     1.0000 0.23990  0.57150  0.61990  Biso   1.000  H
  H324     1.0000 0.11990  0.73990  0.57150  Biso   1.000  H
  H325     1.0000 0.88010  0.26010  0.57150  Biso   1.000  H
  H326     1.0000 0.23990  0.42850  0.38010  Biso   1.000  H
  H327     1.0000 0.88010  0.73990  0.42850  Biso   1.000  H
  H328     1.0000 0.76010  0.42850  0.61990  Biso   1.000  H
  H329     1.0000 0.76010  0.57150  0.38010  Biso   1.000  H
  H330     1.0000 0.11990  0.26010  0.42850  Biso   1.000  H
  H331     1.0000 0.11990  0.57150  0.26010  Biso   1.000  H
  H332     1.0000 0.88010  0.42850  0.26010  Biso   1.000  H
  H333     1.0000 0.92850  0.73990  0.61990  Biso   1.000  H
  H334     1.0000 0.92850  0.26010  0.38010  Biso   1.000  H
  H335     1.0000 0.23990  0.38010  0.57150  Biso   1.000  H
  H336     1.0000 0.76010  0.38010  0.42850  Biso   1.000  H
  H337     1.0000 0.57150  0.11990  0.73990  Biso   1.000  H
  H338     1.0000 0.38010  0.07150  0.73990  Biso   1.000  H
  H339     1.0000 0.42850  0.88010  0.73990  Biso   1.000  H
  H340     1.0000 0.61990  0.92850  0.73990  Biso   1.000  H
  H341     1.0000 0.57150  0.76010  0.61990  Biso   1.000  H
  H342     1.0000 0.57150  0.88010  0.26010  Biso   1.000  H
  H343     1.0000 0.57150  0.23990  0.38010  Biso   1.000  H
  H344     1.0000 0.73990  0.11990  0.42850  Biso   1.000  H
  H345     1.0000 0.42850  0.11990  0.26010  Biso   1.000  H
  H346     1.0000 0.26010  0.11990  0.57150  Biso   1.000  H
  H347     1.0000 0.73990  0.07150  0.61990  Biso   1.000  H
  H348     1.0000 0.61990  0.23990  0.57150  Biso   1.000  H
  H349     1.0000 0.38010  0.76010  0.57150  Biso   1.000  H
  H350     1.0000 0.73990  0.92850  0.38010  Biso   1.000  H
  H351     1.0000 0.38010  0.23990  0.42850  Biso   1.000  H
  H352     1.0000 0.26010  0.92850  0.61990  Biso   1.000  H
  H353     1.0000 0.26010  0.07150  0.38010  Biso   1.000  H
  H354     1.0000 0.61990  0.76010  0.42850  Biso   1.000  H
  H355     1.0000 0.61990  0.07150  0.26010  Biso   1.000  H
  H356     1.0000 0.38010  0.92850  0.26010  Biso   1.000  H
  H357     1.0000 0.42850  0.23990  0.61990  Biso   1.000  H
  H358     1.0000 0.42850  0.76010  0.38010  Biso   1.000  H
  H359     1.0000 0.73990  0.88010  0.57150  Biso   1.000  H
  H360     1.0000 0.26010  0.88010  0.42850  Biso   1.000  H
  H361     1.0000 0.57150  0.61990  0.23990  Biso   1.000  H
  H362     1.0000 0.38010  0.57150  0.23990  Biso   1.000  H
  H363     1.0000 0.42850  0.38010  0.23990  Biso   1.000  H
  H364     1.0000 0.61990  0.42850  0.23990  Biso   1.000  H
  H365     1.0000 0.57150  0.26010  0.11990  Biso   1.000  H
  H366     1.0000 0.57150  0.38010  0.76010  Biso   1.000  H
  H367     1.0000 0.57150  0.73990  0.88010  Biso   1.000  H
  H368     1.0000 0.73990  0.61990  0.92850  Biso   1.000  H
  H369     1.0000 0.42850  0.61990  0.76010  Biso   1.000  H
  H370     1.0000 0.26010  0.61990  0.07150  Biso   1.000  H
  H371     1.0000 0.73990  0.57150  0.11990  Biso   1.000  H
  H372     1.0000 0.61990  0.73990  0.07150  Biso   1.000  H
  H373     1.0000 0.38010  0.26010  0.07150  Biso   1.000  H
  H374     1.0000 0.73990  0.42850  0.88010  Biso   1.000  H
  H375     1.0000 0.38010  0.73990  0.92850  Biso   1.000  H
  H376     1.0000 0.26010  0.42850  0.11990  Biso   1.000  H
  H377     1.0000 0.26010  0.57150  0.88010  Biso   1.000  H
  H378     1.0000 0.61990  0.26010  0.92850  Biso   1.000  H
  H379     1.0000 0.61990  0.57150  0.76010  Biso   1.000  H
  H380     1.0000 0.38010  0.42850  0.76010  Biso   1.000  H
  H381     1.0000 0.42850  0.73990  0.11990  Biso   1.000  H
  H382     1.0000 0.42850  0.26010  0.88010  Biso   1.000  H
  H383     1.0000 0.73990  0.38010  0.07150  Biso   1.000  H
  H384     1.0000 0.26010  0.38010  0.92850  Biso   1.000  H
  H385     1.0000 0.92850  0.88010  0.76010  Biso   1.000  H
  H386     1.0000 0.11990  0.92850  0.76010  Biso   1.000  H
  H387     1.0000 0.07150  0.11990  0.76010  Biso   1.000  H
  H388     1.0000 0.88010  0.07150  0.76010  Biso   1.000  H
  H389     1.0000 0.92850  0.23990  0.88010  Biso   1.000  H
  H390     1.0000 0.92850  0.11990  0.23990  Biso   1.000  H
  H391     1.0000 0.92850  0.76010  0.11990  Biso   1.000  H
  H392     1.0000 0.76010  0.88010  0.07150  Biso   1.000  H
  H393     1.0000 0.07150  0.88010  0.23990  Biso   1.000  H
  H394     1.0000 0.23990  0.88010  0.92850  Biso   1.000  H
  H395     1.0000 0.76010  0.92850  0.88010  Biso   1.000  H
  H396     1.0000 0.88010  0.76010  0.92850  Biso   1.000  H
  H397     1.0000 0.11990  0.23990  0.92850  Biso   1.000  H
  H398     1.0000 0.76010  0.07150  0.11990  Biso   1.000  H
  H399     1.0000 0.11990  0.76010  0.07150  Biso   1.000  H
  H400     1.0000 0.23990  0.07150  0.88010  Biso   1.000  H
  H401     1.0000 0.23990  0.92850  0.11990  Biso   1.000  H
  H402     1.0000 0.88010  0.23990  0.07150  Biso   1.000  H
  H403     1.0000 0.88010  0.92850  0.23990  Biso   1.000  H
  H404     1.0000 0.11990  0.07150  0.23990  Biso   1.000  H
  H405     1.0000 0.07150  0.76010  0.88010  Biso   1.000  H
  H406     1.0000 0.07150  0.23990  0.11990  Biso   1.000  H
  H407     1.0000 0.76010  0.11990  0.92850  Biso   1.000  H
  H408     1.0000 0.23990  0.11990  0.07150  Biso   1.000  H
  H409     1.0000 0.92850  0.38010  0.26010  Biso   1.000  H
  H410     1.0000 0.11990  0.42850  0.26010  Biso   1.000  H
  H411     1.0000 0.07150  0.61990  0.26010  Biso   1.000  H
  H412     1.0000 0.88010  0.57150  0.26010  Biso   1.000  H
  H413     1.0000 0.92850  0.73990  0.38010  Biso   1.000  H
  H414     1.0000 0.92850  0.61990  0.73990  Biso   1.000  H
  H415     1.0000 0.92850  0.26010  0.61990  Biso   1.000  H
  H416     1.0000 0.76010  0.38010  0.57150  Biso   1.000  H
  H417     1.0000 0.07150  0.38010  0.73990  Biso   1.000  H
  H418     1.0000 0.23990  0.38010  0.42850  Biso   1.000  H
  H419     1.0000 0.76010  0.42850  0.38010  Biso   1.000  H
  H420     1.0000 0.88010  0.26010  0.42850  Biso   1.000  H
  H421     1.0000 0.11990  0.73990  0.42850  Biso   1.000  H
  H422     1.0000 0.76010  0.57150  0.61990  Biso   1.000  H
  H423     1.0000 0.11990  0.26010  0.57150  Biso   1.000  H
  H424     1.0000 0.23990  0.57150  0.38010  Biso   1.000  H
  H425     1.0000 0.23990  0.42850  0.61990  Biso   1.000  H
  H426     1.0000 0.88010  0.73990  0.57150  Biso   1.000  H
  H427     1.0000 0.88010  0.42850  0.73990  Biso   1.000  H
  H428     1.0000 0.11990  0.57150  0.73990  Biso   1.000  H
  H429     1.0000 0.07150  0.26010  0.38010  Biso   1.000  H
  H430     1.0000 0.07150  0.73990  0.61990  Biso   1.000  H
  H431     1.0000 0.76010  0.61990  0.42850  Biso   1.000  H
  H432     1.0000 0.23990  0.61990  0.57150  Biso   1.000  H
  H433     1.0000 0.42850  0.88010  0.26010  Biso   1.000  H
  H434     1.0000 0.61990  0.92850  0.26010  Biso   1.000  H
  H435     1.0000 0.57150  0.11990  0.26010  Biso   1.000  H
  H436     1.0000 0.38010  0.07150  0.26010  Biso   1.000  H
  H437     1.0000 0.42850  0.23990  0.38010  Biso   1.000  H
  H438     1.0000 0.42850  0.11990  0.73990  Biso   1.000  H
  H439     1.0000 0.42850  0.76010  0.61990  Biso   1.000  H
  H440     1.0000 0.26010  0.88010  0.57150  Biso   1.000  H
  H441     1.0000 0.57150  0.88010  0.73990  Biso   1.000  H
  H442     1.0000 0.73990  0.88010  0.42850  Biso   1.000  H
  H443     1.0000 0.26010  0.92850  0.38010  Biso   1.000  H
  H444     1.0000 0.38010  0.76010  0.42850  Biso   1.000  H
  H445     1.0000 0.61990  0.23990  0.42850  Biso   1.000  H
  H446     1.0000 0.26010  0.07150  0.61990  Biso   1.000  H
  H447     1.0000 0.61990  0.76010  0.57150  Biso   1.000  H
  H448     1.0000 0.73990  0.07150  0.38010  Biso   1.000  H
  H449     1.0000 0.73990  0.92850  0.61990  Biso   1.000  H
  H450     1.0000 0.38010  0.23990  0.57150  Biso   1.000  H
  H451     1.0000 0.38010  0.92850  0.73990  Biso   1.000  H
  H452     1.0000 0.61990  0.07150  0.73990  Biso   1.000  H
  H453     1.0000 0.57150  0.76010  0.38010  Biso   1.000  H
  H454     1.0000 0.57150  0.23990  0.61990  Biso   1.000  H
  H455     1.0000 0.26010  0.11990  0.42850  Biso   1.000  H
  H456     1.0000 0.73990  0.11990  0.57150  Biso   1.000  H
  H457     1.0000 0.42850  0.38010  0.76010  Biso   1.000  H
  H458     1.0000 0.61990  0.42850  0.76010  Biso   1.000  H
  H459     1.0000 0.57150  0.61990  0.76010  Biso   1.000  H
  H460     1.0000 0.38010  0.57150  0.76010  Biso   1.000  H
  H461     1.0000 0.42850  0.73990  0.88010  Biso   1.000  H
  H462     1.0000 0.42850  0.61990  0.23990  Biso   1.000  H
  H463     1.0000 0.42850  0.26010  0.11990  Biso   1.000  H
  H464     1.0000 0.26010  0.38010  0.07150  Biso   1.000  H
  H465     1.0000 0.57150  0.38010  0.23990  Biso   1.000  H
  H466     1.0000 0.73990  0.38010  0.92850  Biso   1.000  H
  H467     1.0000 0.26010  0.42850  0.88010  Biso   1.000  H
  H468     1.0000 0.38010  0.26010  0.92850  Biso   1.000  H
  H469     1.0000 0.61990  0.73990  0.92850  Biso   1.000  H
  H470     1.0000 0.26010  0.57150  0.11990  Biso   1.000  H
  H471     1.0000 0.61990  0.26010  0.07150  Biso   1.000  H
  H472     1.0000 0.73990  0.57150  0.88010  Biso   1.000  H
  H473     1.0000 0.73990  0.42850  0.11990  Biso   1.000  H
  H474     1.0000 0.38010  0.73990  0.07150  Biso   1.000  H
  H475     1.0000 0.38010  0.42850  0.23990  Biso   1.000  H
  H476     1.0000 0.61990  0.57150  0.23990  Biso   1.000  H
  H477     1.0000 0.57150  0.26010  0.88010  Biso   1.000  H
  H478     1.0000 0.57150  0.73990  0.11990  Biso   1.000  H
  H479     1.0000 0.26010  0.61990  0.92850  Biso   1.000  H
  H480     1.0000 0.73990  0.61990  0.07150  Biso   1.000  H
  C1249    1.0000 0.09110  0.11980  0.26820  Biso   1.000  C
  C1250    1.0000 0.88020  0.09110  0.26820  Biso   1.000  C
  C1251    1.0000 0.90890  0.88020  0.26820  Biso   1.000  C
  C1252    1.0000 0.11980  0.90890  0.26820  Biso   1.000  C
  C1253    1.0000 0.09110  0.73180  0.11980  Biso   1.000  C
  C1254    1.0000 0.09110  0.88020  0.73180  Biso   1.000  C
  C1255    1.0000 0.09110  0.26820  0.88020  Biso   1.000  C
  C1256    1.0000 0.26820  0.11980  0.90890  Biso   1.000  C
  C1257    1.0000 0.90890  0.11980  0.73180  Biso   1.000  C
  C1258    1.0000 0.73180  0.11980  0.09110  Biso   1.000  C
  C1259    1.0000 0.26820  0.09110  0.11980  Biso   1.000  C
  C1260    1.0000 0.11980  0.26820  0.09110  Biso   1.000  C
  C1261    1.0000 0.88020  0.73180  0.09110  Biso   1.000  C
  C1262    1.0000 0.26820  0.90890  0.88020  Biso   1.000  C
  C1263    1.0000 0.88020  0.26820  0.90890  Biso   1.000  C
  C1264    1.0000 0.73180  0.90890  0.11980  Biso   1.000  C
  C1265    1.0000 0.73180  0.09110  0.88020  Biso   1.000  C
  C1266    1.0000 0.11980  0.73180  0.90890  Biso   1.000  C
  C1267    1.0000 0.11980  0.09110  0.73180  Biso   1.000  C
  C1268    1.0000 0.88020  0.90890  0.73180  Biso   1.000  C
  C1269    1.0000 0.90890  0.26820  0.11980  Biso   1.000  C
  C1270    1.0000 0.90890  0.73180  0.88020  Biso   1.000  C
  C1271    1.0000 0.26820  0.88020  0.09110  Biso   1.000  C
  C1272    1.0000 0.73180  0.88020  0.90890  Biso   1.000  C
  C1273    1.0000 0.09110  0.61980  0.76820  Biso   1.000  C
  C1274    1.0000 0.88020  0.59110  0.76820  Biso   1.000  C
  C1275    1.0000 0.90890  0.38020  0.76820  Biso   1.000  C
  C1276    1.0000 0.11980  0.40890  0.76820  Biso   1.000  C
  C1277    1.0000 0.09110  0.23180  0.61980  Biso   1.000  C
  C1278    1.0000 0.09110  0.38020  0.23180  Biso   1.000  C
  C1279    1.0000 0.09110  0.76820  0.38020  Biso   1.000  C
  C1280    1.0000 0.26820  0.61980  0.40890  Biso   1.000  C
  C1281    1.0000 0.90890  0.61980  0.23180  Biso   1.000  C
  C1282    1.0000 0.73180  0.61980  0.59110  Biso   1.000  C
  C1283    1.0000 0.26820  0.59110  0.61980  Biso   1.000  C
  C1284    1.0000 0.11980  0.76820  0.59110  Biso   1.000  C
  C1285    1.0000 0.88020  0.23180  0.59110  Biso   1.000  C
  C1286    1.0000 0.26820  0.40890  0.38020  Biso   1.000  C
  C1287    1.0000 0.88020  0.76820  0.40890  Biso   1.000  C
  C1288    1.0000 0.73180  0.40890  0.61980  Biso   1.000  C
  C1289    1.0000 0.73180  0.59110  0.38020  Biso   1.000  C
  C1290    1.0000 0.11980  0.23180  0.40890  Biso   1.000  C
  C1291    1.0000 0.11980  0.59110  0.23180  Biso   1.000  C
  C1292    1.0000 0.88020  0.40890  0.23180  Biso   1.000  C
  C1293    1.0000 0.90890  0.76820  0.61980  Biso   1.000  C
  C1294    1.0000 0.90890  0.23180  0.38020  Biso   1.000  C
  C1295    1.0000 0.26820  0.38020  0.59110  Biso   1.000  C
  C1296    1.0000 0.73180  0.38020  0.40890  Biso   1.000  C
  C1297    1.0000 0.59110  0.11980  0.76820  Biso   1.000  C
  C1298    1.0000 0.38020  0.09110  0.76820  Biso   1.000  C
  C1299    1.0000 0.40890  0.88020  0.76820  Biso   1.000  C
  C1300    1.0000 0.61980  0.90890  0.76820  Biso   1.000  C
  C1301    1.0000 0.59110  0.73180  0.61980  Biso   1.000  C
  C1302    1.0000 0.59110  0.88020  0.23180  Biso   1.000  C
  C1303    1.0000 0.59110  0.26820  0.38020  Biso   1.000  C
  C1304    1.0000 0.76820  0.11980  0.40890  Biso   1.000  C
  C1305    1.0000 0.40890  0.11980  0.23180  Biso   1.000  C
  C1306    1.0000 0.23180  0.11980  0.59110  Biso   1.000  C
  C1307    1.0000 0.76820  0.09110  0.61980  Biso   1.000  C
  C1308    1.0000 0.61980  0.26820  0.59110  Biso   1.000  C
  C1309    1.0000 0.38020  0.73180  0.59110  Biso   1.000  C
  C1310    1.0000 0.76820  0.90890  0.38020  Biso   1.000  C
  C1311    1.0000 0.38020  0.26820  0.40890  Biso   1.000  C
  C1312    1.0000 0.23180  0.90890  0.61980  Biso   1.000  C
  C1313    1.0000 0.23180  0.09110  0.38020  Biso   1.000  C
  C1314    1.0000 0.61980  0.73180  0.40890  Biso   1.000  C
  C1315    1.0000 0.61980  0.09110  0.23180  Biso   1.000  C
  C1316    1.0000 0.38020  0.90890  0.23180  Biso   1.000  C
  C1317    1.0000 0.40890  0.26820  0.61980  Biso   1.000  C
  C1318    1.0000 0.40890  0.73180  0.38020  Biso   1.000  C
  C1319    1.0000 0.76820  0.88020  0.59110  Biso   1.000  C
  C1320    1.0000 0.23180  0.88020  0.40890  Biso   1.000  C
  C1321    1.0000 0.59110  0.61980  0.26820  Biso   1.000  C
  C1322    1.0000 0.38020  0.59110  0.26820  Biso   1.000  C
  C1323    1.0000 0.40890  0.38020  0.26820  Biso   1.000  C
  C1324    1.0000 0.61980  0.40890  0.26820  Biso   1.000  C
  C1325    1.0000 0.59110  0.23180  0.11980  Biso   1.000  C
  C1326    1.0000 0.59110  0.38020  0.73180  Biso   1.000  C
  C1327    1.0000 0.59110  0.76820  0.88020  Biso   1.000  C
  C1328    1.0000 0.76820  0.61980  0.90890  Biso   1.000  C
  C1329    1.0000 0.40890  0.61980  0.73180  Biso   1.000  C
  C1330    1.0000 0.23180  0.61980  0.09110  Biso   1.000  C
  C1331    1.0000 0.76820  0.59110  0.11980  Biso   1.000  C
  C1332    1.0000 0.61980  0.76820  0.09110  Biso   1.000  C
  C1333    1.0000 0.38020  0.23180  0.09110  Biso   1.000  C
  C1334    1.0000 0.76820  0.40890  0.88020  Biso   1.000  C
  C1335    1.0000 0.38020  0.76820  0.90890  Biso   1.000  C
  C1336    1.0000 0.23180  0.40890  0.11980  Biso   1.000  C
  C1337    1.0000 0.23180  0.59110  0.88020  Biso   1.000  C
  C1338    1.0000 0.61980  0.23180  0.90890  Biso   1.000  C
  C1339    1.0000 0.61980  0.59110  0.73180  Biso   1.000  C
  C1340    1.0000 0.38020  0.40890  0.73180  Biso   1.000  C
  C1341    1.0000 0.40890  0.76820  0.11980  Biso   1.000  C
  C1342    1.0000 0.40890  0.23180  0.88020  Biso   1.000  C
  C1343    1.0000 0.76820  0.38020  0.09110  Biso   1.000  C
  C1344    1.0000 0.23180  0.38020  0.90890  Biso   1.000  C
  C1345    1.0000 0.90890  0.88020  0.73180  Biso   1.000  C
  C1346    1.0000 0.11980  0.90890  0.73180  Biso   1.000  C
  C1347    1.0000 0.09110  0.11980  0.73180  Biso   1.000  C
  C1348    1.0000 0.88020  0.09110  0.73180  Biso   1.000  C
  C1349    1.0000 0.90890  0.26820  0.88020  Biso   1.000  C
  C1350    1.0000 0.90890  0.11980  0.26820  Biso   1.000  C
  C1351    1.0000 0.90890  0.73180  0.11980  Biso   1.000  C
  C1352    1.0000 0.73180  0.88020  0.09110  Biso   1.000  C
  C1353    1.0000 0.09110  0.88020  0.26820  Biso   1.000  C
  C1354    1.0000 0.26820  0.88020  0.90890  Biso   1.000  C
  C1355    1.0000 0.73180  0.90890  0.88020  Biso   1.000  C
  C1356    1.0000 0.88020  0.73180  0.90890  Biso   1.000  C
  C1357    1.0000 0.11980  0.26820  0.90890  Biso   1.000  C
  C1358    1.0000 0.73180  0.09110  0.11980  Biso   1.000  C
  C1359    1.0000 0.11980  0.73180  0.09110  Biso   1.000  C
  C1360    1.0000 0.26820  0.09110  0.88020  Biso   1.000  C
  C1361    1.0000 0.26820  0.90890  0.11980  Biso   1.000  C
  C1362    1.0000 0.88020  0.26820  0.09110  Biso   1.000  C
  C1363    1.0000 0.88020  0.90890  0.26820  Biso   1.000  C
  C1364    1.0000 0.11980  0.09110  0.26820  Biso   1.000  C
  C1365    1.0000 0.09110  0.73180  0.88020  Biso   1.000  C
  C1366    1.0000 0.09110  0.26820  0.11980  Biso   1.000  C
  C1367    1.0000 0.73180  0.11980  0.90890  Biso   1.000  C
  C1368    1.0000 0.26820  0.11980  0.09110  Biso   1.000  C
  C1369    1.0000 0.90890  0.38020  0.23180  Biso   1.000  C
  C1370    1.0000 0.11980  0.40890  0.23180  Biso   1.000  C
  C1371    1.0000 0.09110  0.61980  0.23180  Biso   1.000  C
  C1372    1.0000 0.88020  0.59110  0.23180  Biso   1.000  C
  C1373    1.0000 0.90890  0.76820  0.38020  Biso   1.000  C
  C1374    1.0000 0.90890  0.61980  0.76820  Biso   1.000  C
  C1375    1.0000 0.90890  0.23180  0.61980  Biso   1.000  C
  C1376    1.0000 0.73180  0.38020  0.59110  Biso   1.000  C
  C1377    1.0000 0.09110  0.38020  0.76820  Biso   1.000  C
  C1378    1.0000 0.26820  0.38020  0.40890  Biso   1.000  C
  C1379    1.0000 0.73180  0.40890  0.38020  Biso   1.000  C
  C1380    1.0000 0.88020  0.23180  0.40890  Biso   1.000  C
  C1381    1.0000 0.11980  0.76820  0.40890  Biso   1.000  C
  C1382    1.0000 0.73180  0.59110  0.61980  Biso   1.000  C
  C1383    1.0000 0.11980  0.23180  0.59110  Biso   1.000  C
  C1384    1.0000 0.26820  0.59110  0.38020  Biso   1.000  C
  C1385    1.0000 0.26820  0.40890  0.61980  Biso   1.000  C
  C1386    1.0000 0.88020  0.76820  0.59110  Biso   1.000  C
  C1387    1.0000 0.88020  0.40890  0.76820  Biso   1.000  C
  C1388    1.0000 0.11980  0.59110  0.76820  Biso   1.000  C
  C1389    1.0000 0.09110  0.23180  0.38020  Biso   1.000  C
  C1390    1.0000 0.09110  0.76820  0.61980  Biso   1.000  C
  C1391    1.0000 0.73180  0.61980  0.40890  Biso   1.000  C
  C1392    1.0000 0.26820  0.61980  0.59110  Biso   1.000  C
  C1393    1.0000 0.40890  0.88020  0.23180  Biso   1.000  C
  C1394    1.0000 0.61980  0.90890  0.23180  Biso   1.000  C
  C1395    1.0000 0.59110  0.11980  0.23180  Biso   1.000  C
  C1396    1.0000 0.38020  0.09110  0.23180  Biso   1.000  C
  C1397    1.0000 0.40890  0.26820  0.38020  Biso   1.000  C
  C1398    1.0000 0.40890  0.11980  0.76820  Biso   1.000  C
  C1399    1.0000 0.40890  0.73180  0.61980  Biso   1.000  C
  C1400    1.0000 0.23180  0.88020  0.59110  Biso   1.000  C
  C1401    1.0000 0.59110  0.88020  0.76820  Biso   1.000  C
  C1402    1.0000 0.76820  0.88020  0.40890  Biso   1.000  C
  C1403    1.0000 0.23180  0.90890  0.38020  Biso   1.000  C
  C1404    1.0000 0.38020  0.73180  0.40890  Biso   1.000  C
  C1405    1.0000 0.61980  0.26820  0.40890  Biso   1.000  C
  C1406    1.0000 0.23180  0.09110  0.61980  Biso   1.000  C
  C1407    1.0000 0.61980  0.73180  0.59110  Biso   1.000  C
  C1408    1.0000 0.76820  0.09110  0.38020  Biso   1.000  C
  C1409    1.0000 0.76820  0.90890  0.61980  Biso   1.000  C
  C1410    1.0000 0.38020  0.26820  0.59110  Biso   1.000  C
  C1411    1.0000 0.38020  0.90890  0.76820  Biso   1.000  C
  C1412    1.0000 0.61980  0.09110  0.76820  Biso   1.000  C
  C1413    1.0000 0.59110  0.73180  0.38020  Biso   1.000  C
  C1414    1.0000 0.59110  0.26820  0.61980  Biso   1.000  C
  C1415    1.0000 0.23180  0.11980  0.40890  Biso   1.000  C
  C1416    1.0000 0.76820  0.11980  0.59110  Biso   1.000  C
  C1417    1.0000 0.40890  0.38020  0.73180  Biso   1.000  C
  C1418    1.0000 0.61980  0.40890  0.73180  Biso   1.000  C
  C1419    1.0000 0.59110  0.61980  0.73180  Biso   1.000  C
  C1420    1.0000 0.38020  0.59110  0.73180  Biso   1.000  C
  C1421    1.0000 0.40890  0.76820  0.88020  Biso   1.000  C
  C1422    1.0000 0.40890  0.61980  0.26820  Biso   1.000  C
  C1423    1.0000 0.40890  0.23180  0.11980  Biso   1.000  C
  C1424    1.0000 0.23180  0.38020  0.09110  Biso   1.000  C
  C1425    1.0000 0.59110  0.38020  0.26820  Biso   1.000  C
  C1426    1.0000 0.76820  0.38020  0.90890  Biso   1.000  C
  C1427    1.0000 0.23180  0.40890  0.88020  Biso   1.000  C
  C1428    1.0000 0.38020  0.23180  0.90890  Biso   1.000  C
  C1429    1.0000 0.61980  0.76820  0.90890  Biso   1.000  C
  C1430    1.0000 0.23180  0.59110  0.11980  Biso   1.000  C
  C1431    1.0000 0.61980  0.23180  0.09110  Biso   1.000  C
  C1432    1.0000 0.76820  0.59110  0.88020  Biso   1.000  C
  C1433    1.0000 0.76820  0.40890  0.11980  Biso   1.000  C
  C1434    1.0000 0.38020  0.76820  0.09110  Biso   1.000  C
  C1435    1.0000 0.38020  0.40890  0.26820  Biso   1.000  C
  C1436    1.0000 0.61980  0.59110  0.26820  Biso   1.000  C
  C1437    1.0000 0.59110  0.23180  0.88020  Biso   1.000  C
  C1438    1.0000 0.59110  0.76820  0.11980  Biso   1.000  C
  C1439    1.0000 0.23180  0.61980  0.90890  Biso   1.000  C
  C1440    1.0000 0.76820  0.61980  0.09110  Biso   1.000  C
  H481     1.0000 0.08370  0.13210  0.27540  Biso   1.000  H
  H482     1.0000 0.86790  0.08370  0.27540  Biso   1.000  H
  H483     1.0000 0.91630  0.86790  0.27540  Biso   1.000  H
  H484     1.0000 0.13210  0.91630  0.27540  Biso   1.000  H
  H485     1.0000 0.08370  0.72460  0.13210  Biso   1.000  H
  H486     1.0000 0.08370  0.86790  0.72460  Biso   1.000  H
  H487     1.0000 0.08370  0.27540  0.86790  Biso   1.000  H
  H488     1.0000 0.27540  0.13210  0.91630  Biso   1.000  H
  H489     1.0000 0.91630  0.13210  0.72460  Biso   1.000  H
  H490     1.0000 0.72460  0.13210  0.08370  Biso   1.000  H
  H491     1.0000 0.27540  0.08370  0.13210  Biso   1.000  H
  H492     1.0000 0.13210  0.27540  0.08370  Biso   1.000  H
  H493     1.0000 0.86790  0.72460  0.08370  Biso   1.000  H
  H494     1.0000 0.27540  0.91630  0.86790  Biso   1.000  H
  H495     1.0000 0.86790  0.27540  0.91630  Biso   1.000  H
  H496     1.0000 0.72460  0.91630  0.13210  Biso   1.000  H
  H497     1.0000 0.72460  0.08370  0.86790  Biso   1.000  H
  H498     1.0000 0.13210  0.72460  0.91630  Biso   1.000  H
  H499     1.0000 0.13210  0.08370  0.72460  Biso   1.000  H
  H500     1.0000 0.86790  0.91630  0.72460  Biso   1.000  H
  H501     1.0000 0.91630  0.27540  0.13210  Biso   1.000  H
  H502     1.0000 0.91630  0.72460  0.86790  Biso   1.000  H
  H503     1.0000 0.27540  0.86790  0.08370  Biso   1.000  H
  H504     1.0000 0.72460  0.86790  0.91630  Biso   1.000  H
  H505     1.0000 0.08370  0.63210  0.77540  Biso   1.000  H
  H506     1.0000 0.86790  0.58370  0.77540  Biso   1.000  H
  H507     1.0000 0.91630  0.36790  0.77540  Biso   1.000  H
  H508     1.0000 0.13210  0.41630  0.77540  Biso   1.000  H
  H509     1.0000 0.08370  0.22460  0.63210  Biso   1.000  H
  H510     1.0000 0.08370  0.36790  0.22460  Biso   1.000  H
  H511     1.0000 0.08370  0.77540  0.36790  Biso   1.000  H
  H512     1.0000 0.27540  0.63210  0.41630  Biso   1.000  H
  H513     1.0000 0.91630  0.63210  0.22460  Biso   1.000  H
  H514     1.0000 0.72460  0.63210  0.58370  Biso   1.000  H
  H515     1.0000 0.27540  0.58370  0.63210  Biso   1.000  H
  H516     1.0000 0.13210  0.77540  0.58370  Biso   1.000  H
  H517     1.0000 0.86790  0.22460  0.58370  Biso   1.000  H
  H518     1.0000 0.27540  0.41630  0.36790  Biso   1.000  H
  H519     1.0000 0.86790  0.77540  0.41630  Biso   1.000  H
  H520     1.0000 0.72460  0.41630  0.63210  Biso   1.000  H
  H521     1.0000 0.72460  0.58370  0.36790  Biso   1.000  H
  H522     1.0000 0.13210  0.22460  0.41630  Biso   1.000  H
  H523     1.0000 0.13210  0.58370  0.22460  Biso   1.000  H
  H524     1.0000 0.86790  0.41630  0.22460  Biso   1.000  H
  H525     1.0000 0.91630  0.77540  0.63210  Biso   1.000  H
  H526     1.0000 0.91630  0.22460  0.36790  Biso   1.000  H
  H527     1.0000 0.27540  0.36790  0.58370  Biso   1.000  H
  H528     1.0000 0.72460  0.36790  0.41630  Biso   1.000  H
  H529     1.0000 0.58370  0.13210  0.77540  Biso   1.000  H
  H530     1.0000 0.36790  0.08370  0.77540  Biso   1.000  H
  H531     1.0000 0.41630  0.86790  0.77540  Biso   1.000  H
  H532     1.0000 0.63210  0.91630  0.77540  Biso   1.000  H
  H533     1.0000 0.58370  0.72460  0.63210  Biso   1.000  H
  H534     1.0000 0.58370  0.86790  0.22460  Biso   1.000  H
  H535     1.0000 0.58370  0.27540  0.36790  Biso   1.000  H
  H536     1.0000 0.77540  0.13210  0.41630  Biso   1.000  H
  H537     1.0000 0.41630  0.13210  0.22460  Biso   1.000  H
  H538     1.0000 0.22460  0.13210  0.58370  Biso   1.000  H
  H539     1.0000 0.77540  0.08370  0.63210  Biso   1.000  H
  H540     1.0000 0.63210  0.27540  0.58370  Biso   1.000  H
  H541     1.0000 0.36790  0.72460  0.58370  Biso   1.000  H
  H542     1.0000 0.77540  0.91630  0.36790  Biso   1.000  H
  H543     1.0000 0.36790  0.27540  0.41630  Biso   1.000  H
  H544     1.0000 0.22460  0.91630  0.63210  Biso   1.000  H
  H545     1.0000 0.22460  0.08370  0.36790  Biso   1.000  H
  H546     1.0000 0.63210  0.72460  0.41630  Biso   1.000  H
  H547     1.0000 0.63210  0.08370  0.22460  Biso   1.000  H
  H548     1.0000 0.36790  0.91630  0.22460  Biso   1.000  H
  H549     1.0000 0.41630  0.27540  0.63210  Biso   1.000  H
  H550     1.0000 0.41630  0.72460  0.36790  Biso   1.000  H
  H551     1.0000 0.77540  0.86790  0.58370  Biso   1.000  H
  H552     1.0000 0.22460  0.86790  0.41630  Biso   1.000  H
  H553     1.0000 0.58370  0.63210  0.27540  Biso   1.000  H
  H554     1.0000 0.36790  0.58370  0.27540  Biso   1.000  H
  H555     1.0000 0.41630  0.36790  0.27540  Biso   1.000  H
  H556     1.0000 0.63210  0.41630  0.27540  Biso   1.000  H
  H557     1.0000 0.58370  0.22460  0.13210  Biso   1.000  H
  H558     1.0000 0.58370  0.36790  0.72460  Biso   1.000  H
  H559     1.0000 0.58370  0.77540  0.86790  Biso   1.000  H
  H560     1.0000 0.77540  0.63210  0.91630  Biso   1.000  H
  H561     1.0000 0.41630  0.63210  0.72460  Biso   1.000  H
  H562     1.0000 0.22460  0.63210  0.08370  Biso   1.000  H
  H563     1.0000 0.77540  0.58370  0.13210  Biso   1.000  H
  H564     1.0000 0.63210  0.77540  0.08370  Biso   1.000  H
  H565     1.0000 0.36790  0.22460  0.08370  Biso   1.000  H
  H566     1.0000 0.77540  0.41630  0.86790  Biso   1.000  H
  H567     1.0000 0.36790  0.77540  0.91630  Biso   1.000  H
  H568     1.0000 0.22460  0.41630  0.13210  Biso   1.000  H
  H569     1.0000 0.22460  0.58370  0.86790  Biso   1.000  H
  H570     1.0000 0.63210  0.22460  0.91630  Biso   1.000  H
  H571     1.0000 0.63210  0.58370  0.72460  Biso   1.000  H
  H572     1.0000 0.36790  0.41630  0.72460  Biso   1.000  H
  H573     1.0000 0.41630  0.77540  0.13210  Biso   1.000  H
  H574     1.0000 0.41630  0.22460  0.86790  Biso   1.000  H
  H575     1.0000 0.77540  0.36790  0.08370  Biso   1.000  H
  H576     1.0000 0.22460  0.36790  0.91630  Biso   1.000  H
  H577     1.0000 0.91630  0.86790  0.72460  Biso   1.000  H
  H578     1.0000 0.13210  0.91630  0.72460  Biso   1.000  H
  H579     1.0000 0.08370  0.13210  0.72460  Biso   1.000  H
  H580     1.0000 0.86790  0.08370  0.72460  Biso   1.000  H
  H581     1.0000 0.91630  0.27540  0.86790  Biso   1.000  H
  H582     1.0000 0.91630  0.13210  0.27540  Biso   1.000  H
  H583     1.0000 0.91630  0.72460  0.13210  Biso   1.000  H
  H584     1.0000 0.72460  0.86790  0.08370  Biso   1.000  H
  H585     1.0000 0.08370  0.86790  0.27540  Biso   1.000  H
  H586     1.0000 0.27540  0.86790  0.91630  Biso   1.000  H
  H587     1.0000 0.72460  0.91630  0.86790  Biso   1.000  H
  H588     1.0000 0.86790  0.72460  0.91630  Biso   1.000  H
  H589     1.0000 0.13210  0.27540  0.91630  Biso   1.000  H
  H590     1.0000 0.72460  0.08370  0.13210  Biso   1.000  H
  H591     1.0000 0.13210  0.72460  0.08370  Biso   1.000  H
  H592     1.0000 0.27540  0.08370  0.86790  Biso   1.000  H
  H593     1.0000 0.27540  0.91630  0.13210  Biso   1.000  H
  H594     1.0000 0.86790  0.27540  0.08370  Biso   1.000  H
  H595     1.0000 0.86790  0.91630  0.27540  Biso   1.000  H
  H596     1.0000 0.13210  0.08370  0.27540  Biso   1.000  H
  H597     1.0000 0.08370  0.72460  0.86790  Biso   1.000  H
  H598     1.0000 0.08370  0.27540  0.13210  Biso   1.000  H
  H599     1.0000 0.72460  0.13210  0.91630  Biso   1.000  H
  H600     1.0000 0.27540  0.13210  0.08370  Biso   1.000  H
  H601     1.0000 0.91630  0.36790  0.22460  Biso   1.000  H
  H602     1.0000 0.13210  0.41630  0.22460  Biso   1.000  H
  H603     1.0000 0.08370  0.63210  0.22460  Biso   1.000  H
  H604     1.0000 0.86790  0.58370  0.22460  Biso   1.000  H
  H605     1.0000 0.91630  0.77540  0.36790  Biso   1.000  H
  H606     1.0000 0.91630  0.63210  0.77540  Biso   1.000  H
  H607     1.0000 0.91630  0.22460  0.63210  Biso   1.000  H
  H608     1.0000 0.72460  0.36790  0.58370  Biso   1.000  H
  H609     1.0000 0.08370  0.36790  0.77540  Biso   1.000  H
  H610     1.0000 0.27540  0.36790  0.41630  Biso   1.000  H
  H611     1.0000 0.72460  0.41630  0.36790  Biso   1.000  H
  H612     1.0000 0.86790  0.22460  0.41630  Biso   1.000  H
  H613     1.0000 0.13210  0.77540  0.41630  Biso   1.000  H
  H614     1.0000 0.72460  0.58370  0.63210  Biso   1.000  H
  H615     1.0000 0.13210  0.22460  0.58370  Biso   1.000  H
  H616     1.0000 0.27540  0.58370  0.36790  Biso   1.000  H
  H617     1.0000 0.27540  0.41630  0.63210  Biso   1.000  H
  H618     1.0000 0.86790  0.77540  0.58370  Biso   1.000  H
  H619     1.0000 0.86790  0.41630  0.77540  Biso   1.000  H
  H620     1.0000 0.13210  0.58370  0.77540  Biso   1.000  H
  H621     1.0000 0.08370  0.22460  0.36790  Biso   1.000  H
  H622     1.0000 0.08370  0.77540  0.63210  Biso   1.000  H
  H623     1.0000 0.72460  0.63210  0.41630  Biso   1.000  H
  H624     1.0000 0.27540  0.63210  0.58370  Biso   1.000  H
  H625     1.0000 0.41630  0.86790  0.22460  Biso   1.000  H
  H626     1.0000 0.63210  0.91630  0.22460  Biso   1.000  H
  H627     1.0000 0.58370  0.13210  0.22460  Biso   1.000  H
  H628     1.0000 0.36790  0.08370  0.22460  Biso   1.000  H
  H629     1.0000 0.41630  0.27540  0.36790  Biso   1.000  H
  H630     1.0000 0.41630  0.13210  0.77540  Biso   1.000  H
  H631     1.0000 0.41630  0.72460  0.63210  Biso   1.000  H
  H632     1.0000 0.22460  0.86790  0.58370  Biso   1.000  H
  H633     1.0000 0.58370  0.86790  0.77540  Biso   1.000  H
  H634     1.0000 0.77540  0.86790  0.41630  Biso   1.000  H
  H635     1.0000 0.22460  0.91630  0.36790  Biso   1.000  H
  H636     1.0000 0.36790  0.72460  0.41630  Biso   1.000  H
  H637     1.0000 0.63210  0.27540  0.41630  Biso   1.000  H
  H638     1.0000 0.22460  0.08370  0.63210  Biso   1.000  H
  H639     1.0000 0.63210  0.72460  0.58370  Biso   1.000  H
  H640     1.0000 0.77540  0.08370  0.36790  Biso   1.000  H
  H641     1.0000 0.77540  0.91630  0.63210  Biso   1.000  H
  H642     1.0000 0.36790  0.27540  0.58370  Biso   1.000  H
  H643     1.0000 0.36790  0.91630  0.77540  Biso   1.000  H
  H644     1.0000 0.63210  0.08370  0.77540  Biso   1.000  H
  H645     1.0000 0.58370  0.72460  0.36790  Biso   1.000  H
  H646     1.0000 0.58370  0.27540  0.63210  Biso   1.000  H
  H647     1.0000 0.22460  0.13210  0.41630  Biso   1.000  H
  H648     1.0000 0.77540  0.13210  0.58370  Biso   1.000  H
  H649     1.0000 0.41630  0.36790  0.72460  Biso   1.000  H
  H650     1.0000 0.63210  0.41630  0.72460  Biso   1.000  H
  H651     1.0000 0.58370  0.63210  0.72460  Biso   1.000  H
  H652     1.0000 0.36790  0.58370  0.72460  Biso   1.000  H
  H653     1.0000 0.41630  0.77540  0.86790  Biso   1.000  H
  H654     1.0000 0.41630  0.63210  0.27540  Biso   1.000  H
  H655     1.0000 0.41630  0.22460  0.13210  Biso   1.000  H
  H656     1.0000 0.22460  0.36790  0.08370  Biso   1.000  H
  H657     1.0000 0.58370  0.36790  0.27540  Biso   1.000  H
  H658     1.0000 0.77540  0.36790  0.91630  Biso   1.000  H
  H659     1.0000 0.22460  0.41630  0.86790  Biso   1.000  H
  H660     1.0000 0.36790  0.22460  0.91630  Biso   1.000  H
  H661     1.0000 0.63210  0.77540  0.91630  Biso   1.000  H
  H662     1.0000 0.22460  0.58370  0.13210  Biso   1.000  H
  H663     1.0000 0.63210  0.22460  0.08370  Biso   1.000  H
  H664     1.0000 0.77540  0.58370  0.86790  Biso   1.000  H
  H665     1.0000 0.77540  0.41630  0.13210  Biso   1.000  H
  H666     1.0000 0.36790  0.77540  0.08370  Biso   1.000  H
  H667     1.0000 0.36790  0.41630  0.27540  Biso   1.000  H
  H668     1.0000 0.63210  0.58370  0.27540  Biso   1.000  H
  H669     1.0000 0.58370  0.22460  0.86790  Biso   1.000  H
  H670     1.0000 0.58370  0.77540  0.13210  Biso   1.000  H
  H671     1.0000 0.22460  0.63210  0.91630  Biso   1.000  H
  H672     1.0000 0.77540  0.63210  0.08370  Biso   1.000  H
  C1441    1.0000 0.10910  0.10910  0.27890  Biso   1.000  C
  C1442    1.0000 0.89090  0.10910  0.27890  Biso   1.000  C
  C1443    1.0000 0.89090  0.89090  0.27890  Biso   1.000  C
  C1444    1.0000 0.10910  0.89090  0.27890  Biso   1.000  C
  C1445    1.0000 0.10910  0.72110  0.10910  Biso   1.000  C
  C1446    1.0000 0.10910  0.89090  0.72110  Biso   1.000  C
  C1447    1.0000 0.10910  0.27890  0.89090  Biso   1.000  C
  C1448    1.0000 0.27890  0.10910  0.89090  Biso   1.000  C
  C1449    1.0000 0.89090  0.10910  0.72110  Biso   1.000  C
  C1450    1.0000 0.72110  0.10910  0.10910  Biso   1.000  C
  C1451    1.0000 0.27890  0.10910  0.10910  Biso   1.000  C
  C1452    1.0000 0.10910  0.27890  0.10910  Biso   1.000  C
  C1453    1.0000 0.89090  0.72110  0.10910  Biso   1.000  C
  C1454    1.0000 0.27890  0.89090  0.89090  Biso   1.000  C
  C1455    1.0000 0.89090  0.27890  0.89090  Biso   1.000  C
  C1456    1.0000 0.72110  0.89090  0.10910  Biso   1.000  C
  C1457    1.0000 0.72110  0.10910  0.89090  Biso   1.000  C
  C1458    1.0000 0.10910  0.72110  0.89090  Biso   1.000  C
  C1459    1.0000 0.10910  0.10910  0.72110  Biso   1.000  C
  C1460    1.0000 0.89090  0.89090  0.72110  Biso   1.000  C
  C1461    1.0000 0.89090  0.27890  0.10910  Biso   1.000  C
  C1462    1.0000 0.89090  0.72110  0.89090  Biso   1.000  C
  C1463    1.0000 0.27890  0.89090  0.10910  Biso   1.000  C
  C1464    1.0000 0.72110  0.89090  0.89090  Biso   1.000  C
  C1465    1.0000 0.10910  0.60910  0.77890  Biso   1.000  C
  C1466    1.0000 0.89090  0.60910  0.77890  Biso   1.000  C
  C1467    1.0000 0.89090  0.39090  0.77890  Biso   1.000  C
  C1468    1.0000 0.10910  0.39090  0.77890  Biso   1.000  C
  C1469    1.0000 0.10910  0.22110  0.60910  Biso   1.000  C
  C1470    1.0000 0.10910  0.39090  0.22110  Biso   1.000  C
  C1471    1.0000 0.10910  0.77890  0.39090  Biso   1.000  C
  C1472    1.0000 0.27890  0.60910  0.39090  Biso   1.000  C
  C1473    1.0000 0.89090  0.60910  0.22110  Biso   1.000  C
  C1474    1.0000 0.72110  0.60910  0.60910  Biso   1.000  C
  C1475    1.0000 0.27890  0.60910  0.60910  Biso   1.000  C
  C1476    1.0000 0.10910  0.77890  0.60910  Biso   1.000  C
  C1477    1.0000 0.89090  0.22110  0.60910  Biso   1.000  C
  C1478    1.0000 0.27890  0.39090  0.39090  Biso   1.000  C
  C1479    1.0000 0.89090  0.77890  0.39090  Biso   1.000  C
  C1480    1.0000 0.72110  0.39090  0.60910  Biso   1.000  C
  C1481    1.0000 0.72110  0.60910  0.39090  Biso   1.000  C
  C1482    1.0000 0.10910  0.22110  0.39090  Biso   1.000  C
  C1483    1.0000 0.10910  0.60910  0.22110  Biso   1.000  C
  C1484    1.0000 0.89090  0.39090  0.22110  Biso   1.000  C
  C1485    1.0000 0.89090  0.77890  0.60910  Biso   1.000  C
  C1486    1.0000 0.89090  0.22110  0.39090  Biso   1.000  C
  C1487    1.0000 0.27890  0.39090  0.60910  Biso   1.000  C
  C1488    1.0000 0.72110  0.39090  0.39090  Biso   1.000  C
  C1489    1.0000 0.60910  0.10910  0.77890  Biso   1.000  C
  C1490    1.0000 0.39090  0.10910  0.77890  Biso   1.000  C
  C1491    1.0000 0.39090  0.89090  0.77890  Biso   1.000  C
  C1492    1.0000 0.60910  0.89090  0.77890  Biso   1.000  C
  C1493    1.0000 0.60910  0.72110  0.60910  Biso   1.000  C
  C1494    1.0000 0.60910  0.89090  0.22110  Biso   1.000  C
  C1495    1.0000 0.60910  0.27890  0.39090  Biso   1.000  C
  C1496    1.0000 0.77890  0.10910  0.39090  Biso   1.000  C
  C1497    1.0000 0.39090  0.10910  0.22110  Biso   1.000  C
  C1498    1.0000 0.22110  0.10910  0.60910  Biso   1.000  C
  C1499    1.0000 0.77890  0.10910  0.60910  Biso   1.000  C
  C1500    1.0000 0.60910  0.27890  0.60910  Biso   1.000  C
  C1501    1.0000 0.39090  0.72110  0.60910  Biso   1.000  C
  C1502    1.0000 0.77890  0.89090  0.39090  Biso   1.000  C
  C1503    1.0000 0.39090  0.27890  0.39090  Biso   1.000  C
  C1504    1.0000 0.22110  0.89090  0.60910  Biso   1.000  C
  C1505    1.0000 0.22110  0.10910  0.39090  Biso   1.000  C
  C1506    1.0000 0.60910  0.72110  0.39090  Biso   1.000  C
  C1507    1.0000 0.60910  0.10910  0.22110  Biso   1.000  C
  C1508    1.0000 0.39090  0.89090  0.22110  Biso   1.000  C
  C1509    1.0000 0.39090  0.27890  0.60910  Biso   1.000  C
  C1510    1.0000 0.39090  0.72110  0.39090  Biso   1.000  C
  C1511    1.0000 0.77890  0.89090  0.60910  Biso   1.000  C
  C1512    1.0000 0.22110  0.89090  0.39090  Biso   1.000  C
  C1513    1.0000 0.60910  0.60910  0.27890  Biso   1.000  C
  C1514    1.0000 0.39090  0.60910  0.27890  Biso   1.000  C
  C1515    1.0000 0.39090  0.39090  0.27890  Biso   1.000  C
  C1516    1.0000 0.60910  0.39090  0.27890  Biso   1.000  C
  C1517    1.0000 0.60910  0.22110  0.10910  Biso   1.000  C
  C1518    1.0000 0.60910  0.39090  0.72110  Biso   1.000  C
  C1519    1.0000 0.60910  0.77890  0.89090  Biso   1.000  C
  C1520    1.0000 0.77890  0.60910  0.89090  Biso   1.000  C
  C1521    1.0000 0.39090  0.60910  0.72110  Biso   1.000  C
  C1522    1.0000 0.22110  0.60910  0.10910  Biso   1.000  C
  C1523    1.0000 0.77890  0.60910  0.10910  Biso   1.000  C
  C1524    1.0000 0.60910  0.77890  0.10910  Biso   1.000  C
  C1525    1.0000 0.39090  0.22110  0.10910  Biso   1.000  C
  C1526    1.0000 0.77890  0.39090  0.89090  Biso   1.000  C
  C1527    1.0000 0.39090  0.77890  0.89090  Biso   1.000  C
  C1528    1.0000 0.22110  0.39090  0.10910  Biso   1.000  C
  C1529    1.0000 0.22110  0.60910  0.89090  Biso   1.000  C
  C1530    1.0000 0.60910  0.22110  0.89090  Biso   1.000  C
  C1531    1.0000 0.60910  0.60910  0.72110  Biso   1.000  C
  C1532    1.0000 0.39090  0.39090  0.72110  Biso   1.000  C
  C1533    1.0000 0.39090  0.77890  0.10910  Biso   1.000  C
  C1534    1.0000 0.39090  0.22110  0.89090  Biso   1.000  C
  C1535    1.0000 0.77890  0.39090  0.10910  Biso   1.000  C
  C1536    1.0000 0.22110  0.39090  0.89090  Biso   1.000  C
  C1537    1.0000 0.11660  0.11660  0.30070  Biso   1.000  C
  C1538    1.0000 0.88340  0.11660  0.30070  Biso   1.000  C
  C1539    1.0000 0.88340  0.88340  0.30070  Biso   1.000  C
  C1540    1.0000 0.11660  0.88340  0.30070  Biso   1.000  C
  C1541    1.0000 0.11660  0.69930  0.11660  Biso   1.000  C
  C1542    1.0000 0.11660  0.88340  0.69930  Biso   1.000  C
  C1543    1.0000 0.11660  0.30070  0.88340  Biso   1.000  C
  C1544    1.0000 0.30070  0.11660  0.88340  Biso   1.000  C
  C1545    1.0000 0.88340  0.11660  0.69930  Biso   1.000  C
  C1546    1.0000 0.69930  0.11660  0.11660  Biso   1.000  C
  C1547    1.0000 0.30070  0.11660  0.11660  Biso   1.000  C
  C1548    1.0000 0.11660  0.30070  0.11660  Biso   1.000  C
  C1549    1.0000 0.88340  0.69930  0.11660  Biso   1.000  C
  C1550    1.0000 0.30070  0.88340  0.88340  Biso   1.000  C
  C1551    1.0000 0.88340  0.30070  0.88340  Biso   1.000  C
  C1552    1.0000 0.69930  0.88340  0.11660  Biso   1.000  C
  C1553    1.0000 0.69930  0.11660  0.88340  Biso   1.000  C
  C1554    1.0000 0.11660  0.69930  0.88340  Biso   1.000  C
  C1555    1.0000 0.11660  0.11660  0.69930  Biso   1.000  C
  C1556    1.0000 0.88340  0.88340  0.69930  Biso   1.000  C
  C1557    1.0000 0.88340  0.30070  0.11660  Biso   1.000  C
  C1558    1.0000 0.88340  0.69930  0.88340  Biso   1.000  C
  C1559    1.0000 0.30070  0.88340  0.11660  Biso   1.000  C
  C1560    1.0000 0.69930  0.88340  0.88340  Biso   1.000  C
  C1561    1.0000 0.11660  0.61660  0.80070  Biso   1.000  C
  C1562    1.0000 0.88340  0.61660  0.80070  Biso   1.000  C
  C1563    1.0000 0.88340  0.38340  0.80070  Biso   1.000  C
  C1564    1.0000 0.11660  0.38340  0.80070  Biso   1.000  C
  C1565    1.0000 0.11660  0.19930  0.61660  Biso   1.000  C
  C1566    1.0000 0.11660  0.38340  0.19930  Biso   1.000  C
  C1567    1.0000 0.11660  0.80070  0.38340  Biso   1.000  C
  C1568    1.0000 0.30070  0.61660  0.38340  Biso   1.000  C
  C1569    1.0000 0.88340  0.61660  0.19930  Biso   1.000  C
  C1570    1.0000 0.69930  0.61660  0.61660  Biso   1.000  C
  C1571    1.0000 0.30070  0.61660  0.61660  Biso   1.000  C
  C1572    1.0000 0.11660  0.80070  0.61660  Biso   1.000  C
  C1573    1.0000 0.88340  0.19930  0.61660  Biso   1.000  C
  C1574    1.0000 0.30070  0.38340  0.38340  Biso   1.000  C
  C1575    1.0000 0.88340  0.80070  0.38340  Biso   1.000  C
  C1576    1.0000 0.69930  0.38340  0.61660  Biso   1.000  C
  C1577    1.0000 0.69930  0.61660  0.38340  Biso   1.000  C
  C1578    1.0000 0.11660  0.19930  0.38340  Biso   1.000  C
  C1579    1.0000 0.11660  0.61660  0.19930  Biso   1.000  C
  C1580    1.0000 0.88340  0.38340  0.19930  Biso   1.000  C
  C1581    1.0000 0.88340  0.80070  0.61660  Biso   1.000  C
  C1582    1.0000 0.88340  0.19930  0.38340  Biso   1.000  C
  C1583    1.0000 0.30070  0.38340  0.61660  Biso   1.000  C
  C1584    1.0000 0.69930  0.38340  0.38340  Biso   1.000  C
  C1585    1.0000 0.61660  0.11660  0.80070  Biso   1.000  C
  C1586    1.0000 0.38340  0.11660  0.80070  Biso   1.000  C
  C1587    1.0000 0.38340  0.88340  0.80070  Biso   1.000  C
  C1588    1.0000 0.61660  0.88340  0.80070  Biso   1.000  C
  C1589    1.0000 0.61660  0.69930  0.61660  Biso   1.000  C
  C1590    1.0000 0.61660  0.88340  0.19930  Biso   1.000  C
  C1591    1.0000 0.61660  0.30070  0.38340  Biso   1.000  C
  C1592    1.0000 0.80070  0.11660  0.38340  Biso   1.000  C
  C1593    1.0000 0.38340  0.11660  0.19930  Biso   1.000  C
  C1594    1.0000 0.19930  0.11660  0.61660  Biso   1.000  C
  C1595    1.0000 0.80070  0.11660  0.61660  Biso   1.000  C
  C1596    1.0000 0.61660  0.30070  0.61660  Biso   1.000  C
  C1597    1.0000 0.38340  0.69930  0.61660  Biso   1.000  C
  C1598    1.0000 0.80070  0.88340  0.38340  Biso   1.000  C
  C1599    1.0000 0.38340  0.30070  0.38340  Biso   1.000  C
  C1600    1.0000 0.19930  0.88340  0.61660  Biso   1.000  C
  C1601    1.0000 0.19930  0.11660  0.38340  Biso   1.000  C
  C1602    1.0000 0.61660  0.69930  0.38340  Biso   1.000  C
  C1603    1.0000 0.61660  0.11660  0.19930  Biso   1.000  C
  C1604    1.0000 0.38340  0.88340  0.19930  Biso   1.000  C
  C1605    1.0000 0.38340  0.30070  0.61660  Biso   1.000  C
  C1606    1.0000 0.38340  0.69930  0.38340  Biso   1.000  C
  C1607    1.0000 0.80070  0.88340  0.61660  Biso   1.000  C
  C1608    1.0000 0.19930  0.88340  0.38340  Biso   1.000  C
  C1609    1.0000 0.61660  0.61660  0.30070  Biso   1.000  C
  C1610    1.0000 0.38340  0.61660  0.30070  Biso   1.000  C
  C1611    1.0000 0.38340  0.38340  0.30070  Biso   1.000  C
  C1612    1.0000 0.61660  0.38340  0.30070  Biso   1.000  C
  C1613    1.0000 0.61660  0.19930  0.11660  Biso   1.000  C
  C1614    1.0000 0.61660  0.38340  0.69930  Biso   1.000  C
  C1615    1.0000 0.61660  0.80070  0.88340  Biso   1.000  C
  C1616    1.0000 0.80070  0.61660  0.88340  Biso   1.000  C
  C1617    1.0000 0.38340  0.61660  0.69930  Biso   1.000  C
  C1618    1.0000 0.19930  0.61660  0.11660  Biso   1.000  C
  C1619    1.0000 0.80070  0.61660  0.11660  Biso   1.000  C
  C1620    1.0000 0.61660  0.80070  0.11660  Biso   1.000  C
  C1621    1.0000 0.38340  0.19930  0.11660  Biso   1.000  C
  C1622    1.0000 0.80070  0.38340  0.88340  Biso   1.000  C
  C1623    1.0000 0.38340  0.80070  0.88340  Biso   1.000  C
  C1624    1.0000 0.19930  0.38340  0.11660  Biso   1.000  C
  C1625    1.0000 0.19930  0.61660  0.88340  Biso   1.000  C
  C1626    1.0000 0.61660  0.19930  0.88340  Biso   1.000  C
  C1627    1.0000 0.61660  0.61660  0.69930  Biso   1.000  C
  C1628    1.0000 0.38340  0.38340  0.69930  Biso   1.000  C
  C1629    1.0000 0.38340  0.80070  0.11660  Biso   1.000  C
  C1630    1.0000 0.38340  0.19930  0.88340  Biso   1.000  C
  C1631    1.0000 0.80070  0.38340  0.11660  Biso   1.000  C
  C1632    1.0000 0.19930  0.38340  0.88340  Biso   1.000  C
  C1633    1.0000 0.12280  0.12280  0.31880  Biso   1.000  C
  C1634    1.0000 0.87720  0.12280  0.31880  Biso   1.000  C
  C1635    1.0000 0.87720  0.87720  0.31880  Biso   1.000  C
  C1636    1.0000 0.12280  0.87720  0.31880  Biso   1.000  C
  C1637    1.0000 0.12280  0.68120  0.12280  Biso   1.000  C
  C1638    1.0000 0.12280  0.87720  0.68120  Biso   1.000  C
  C1639    1.0000 0.12280  0.31880  0.87720  Biso   1.000  C
  C1640    1.0000 0.31880  0.12280  0.87720  Biso   1.000  C
  C1641    1.0000 0.87720  0.12280  0.68120  Biso   1.000  C
  C1642    1.0000 0.68120  0.12280  0.12280  Biso   1.000  C
  C1643    1.0000 0.31880  0.12280  0.12280  Biso   1.000  C
  C1644    1.0000 0.12280  0.31880  0.12280  Biso   1.000  C
  C1645    1.0000 0.87720  0.68120  0.12280  Biso   1.000  C
  C1646    1.0000 0.31880  0.87720  0.87720  Biso   1.000  C
  C1647    1.0000 0.87720  0.31880  0.87720  Biso   1.000  C
  C1648    1.0000 0.68120  0.87720  0.12280  Biso   1.000  C
  C1649    1.0000 0.68120  0.12280  0.87720  Biso   1.000  C
  C1650    1.0000 0.12280  0.68120  0.87720  Biso   1.000  C
  C1651    1.0000 0.12280  0.12280  0.68120  Biso   1.000  C
  C1652    1.0000 0.87720  0.87720  0.68120  Biso   1.000  C
  C1653    1.0000 0.87720  0.31880  0.12280  Biso   1.000  C
  C1654    1.0000 0.87720  0.68120  0.87720  Biso   1.000  C
  C1655    1.0000 0.31880  0.87720  0.12280  Biso   1.000  C
  C1656    1.0000 0.68120  0.87720  0.87720  Biso   1.000  C
  C1657    1.0000 0.12280  0.62280  0.81880  Biso   1.000  C
  C1658    1.0000 0.87720  0.62280  0.81880  Biso   1.000  C
  C1659    1.0000 0.87720  0.37720  0.81880  Biso   1.000  C
  C1660    1.0000 0.12280  0.37720  0.81880  Biso   1.000  C
  C1661    1.0000 0.12280  0.18120  0.62280  Biso   1.000  C
  C1662    1.0000 0.12280  0.37720  0.18120  Biso   1.000  C
  C1663    1.0000 0.12280  0.81880  0.37720  Biso   1.000  C
  C1664    1.0000 0.31880  0.62280  0.37720  Biso   1.000  C
  C1665    1.0000 0.87720  0.62280  0.18120  Biso   1.000  C
  C1666    1.0000 0.68120  0.62280  0.62280  Biso   1.000  C
  C1667    1.0000 0.31880  0.62280  0.62280  Biso   1.000  C
  C1668    1.0000 0.12280  0.81880  0.62280  Biso   1.000  C
  C1669    1.0000 0.87720  0.18120  0.62280  Biso   1.000  C
  C1670    1.0000 0.31880  0.37720  0.37720  Biso   1.000  C
  C1671    1.0000 0.87720  0.81880  0.37720  Biso   1.000  C
  C1672    1.0000 0.68120  0.37720  0.62280  Biso   1.000  C
  C1673    1.0000 0.68120  0.62280  0.37720  Biso   1.000  C
  C1674    1.0000 0.12280  0.18120  0.37720  Biso   1.000  C
  C1675    1.0000 0.12280  0.62280  0.18120  Biso   1.000  C
  C1676    1.0000 0.87720  0.37720  0.18120  Biso   1.000  C
  C1677    1.0000 0.87720  0.81880  0.62280  Biso   1.000  C
  C1678    1.0000 0.87720  0.18120  0.37720  Biso   1.000  C
  C1679    1.0000 0.31880  0.37720  0.62280  Biso   1.000  C
  C1680    1.0000 0.68120  0.37720  0.37720  Biso   1.000  C
  C1681    1.0000 0.62280  0.12280  0.81880  Biso   1.000  C
  C1682    1.0000 0.37720  0.12280  0.81880  Biso   1.000  C
  C1683    1.0000 0.37720  0.87720  0.81880  Biso   1.000  C
  C1684    1.0000 0.62280  0.87720  0.81880  Biso   1.000  C
  C1685    1.0000 0.62280  0.68120  0.62280  Biso   1.000  C
  C1686    1.0000 0.62280  0.87720  0.18120  Biso   1.000  C
  C1687    1.0000 0.62280  0.31880  0.37720  Biso   1.000  C
  C1688    1.0000 0.81880  0.12280  0.37720  Biso   1.000  C
  C1689    1.0000 0.37720  0.12280  0.18120  Biso   1.000  C
  C1690    1.0000 0.18120  0.12280  0.62280  Biso   1.000  C
  C1691    1.0000 0.81880  0.12280  0.62280  Biso   1.000  C
  C1692    1.0000 0.62280  0.31880  0.62280  Biso   1.000  C
  C1693    1.0000 0.37720  0.68120  0.62280  Biso   1.000  C
  C1694    1.0000 0.81880  0.87720  0.37720  Biso   1.000  C
  C1695    1.0000 0.37720  0.31880  0.37720  Biso   1.000  C
  C1696    1.0000 0.18120  0.87720  0.62280  Biso   1.000  C
  C1697    1.0000 0.18120  0.12280  0.37720  Biso   1.000  C
  C1698    1.0000 0.62280  0.68120  0.37720  Biso   1.000  C
  C1699    1.0000 0.62280  0.12280  0.18120  Biso   1.000  C
  C1700    1.0000 0.37720  0.87720  0.18120  Biso   1.000  C
  C1701    1.0000 0.37720  0.31880  0.62280  Biso   1.000  C
  C1702    1.0000 0.37720  0.68120  0.37720  Biso   1.000  C
  C1703    1.0000 0.81880  0.87720  0.62280  Biso   1.000  C
  C1704    1.0000 0.18120  0.87720  0.37720  Biso   1.000  C
  C1705    1.0000 0.62280  0.62280  0.31880  Biso   1.000  C
  C1706    1.0000 0.37720  0.62280  0.31880  Biso   1.000  C
  C1707    1.0000 0.37720  0.37720  0.31880  Biso   1.000  C
  C1708    1.0000 0.62280  0.37720  0.31880  Biso   1.000  C
  C1709    1.0000 0.62280  0.18120  0.12280  Biso   1.000  C
  C1710    1.0000 0.62280  0.37720  0.68120  Biso   1.000  C
  C1711    1.0000 0.62280  0.81880  0.87720  Biso   1.000  C
  C1712    1.0000 0.81880  0.62280  0.87720  Biso   1.000  C
  C1713    1.0000 0.37720  0.62280  0.68120  Biso   1.000  C
  C1714    1.0000 0.18120  0.62280  0.12280  Biso   1.000  C
  C1715    1.0000 0.81880  0.62280  0.12280  Biso   1.000  C
  C1716    1.0000 0.62280  0.81880  0.12280  Biso   1.000  C
  C1717    1.0000 0.37720  0.18120  0.12280  Biso   1.000  C
  C1718    1.0000 0.81880  0.37720  0.87720  Biso   1.000  C
  C1719    1.0000 0.37720  0.81880  0.87720  Biso   1.000  C
  C1720    1.0000 0.18120  0.37720  0.12280  Biso   1.000  C
  C1721    1.0000 0.18120  0.62280  0.87720  Biso   1.000  C
  C1722    1.0000 0.62280  0.18120  0.87720  Biso   1.000  C
  C1723    1.0000 0.62280  0.62280  0.68120  Biso   1.000  C
  C1724    1.0000 0.37720  0.37720  0.68120  Biso   1.000  C
  C1725    1.0000 0.37720  0.81880  0.12280  Biso   1.000  C
  C1726    1.0000 0.37720  0.18120  0.87720  Biso   1.000  C
  C1727    1.0000 0.81880  0.37720  0.12280  Biso   1.000  C
  C1728    1.0000 0.18120  0.37720  0.87720  Biso   1.000  C
  C1729    1.0000 0.15110  0.12230  0.34890  Biso   1.000  C
  C1730    1.0000 0.87770  0.15110  0.34890  Biso   1.000  C
  C1731    1.0000 0.84890  0.87770  0.34890  Biso   1.000  C
  C1732    1.0000 0.12230  0.84890  0.34890  Biso   1.000  C
  C1733    1.0000 0.15110  0.65110  0.12230  Biso   1.000  C
  C1734    1.0000 0.15110  0.87770  0.65110  Biso   1.000  C
  C1735    1.0000 0.15110  0.34890  0.87770  Biso   1.000  C
  C1736    1.0000 0.34890  0.12230  0.84890  Biso   1.000  C
  C1737    1.0000 0.84890  0.12230  0.65110  Biso   1.000  C
  C1738    1.0000 0.65110  0.12230  0.15110  Biso   1.000  C
  C1739    1.0000 0.34890  0.15110  0.12230  Biso   1.000  C
  C1740    1.0000 0.12230  0.34890  0.15110  Biso   1.000  C
  C1741    1.0000 0.87770  0.65110  0.15110  Biso   1.000  C
  C1742    1.0000 0.34890  0.84890  0.87770  Biso   1.000  C
  C1743    1.0000 0.87770  0.34890  0.84890  Biso   1.000  C
  C1744    1.0000 0.65110  0.84890  0.12230  Biso   1.000  C
  C1745    1.0000 0.65110  0.15110  0.87770  Biso   1.000  C
  C1746    1.0000 0.12230  0.65110  0.84890  Biso   1.000  C
  C1747    1.0000 0.12230  0.15110  0.65110  Biso   1.000  C
  C1748    1.0000 0.87770  0.84890  0.65110  Biso   1.000  C
  C1749    1.0000 0.84890  0.34890  0.12230  Biso   1.000  C
  C1750    1.0000 0.84890  0.65110  0.87770  Biso   1.000  C
  C1751    1.0000 0.34890  0.87770  0.15110  Biso   1.000  C
  C1752    1.0000 0.65110  0.87770  0.84890  Biso   1.000  C
  C1753    1.0000 0.15110  0.62230  0.84890  Biso   1.000  C
  C1754    1.0000 0.87770  0.65110  0.84890  Biso   1.000  C
  C1755    1.0000 0.84890  0.37770  0.84890  Biso   1.000  C
  C1756    1.0000 0.12230  0.34890  0.84890  Biso   1.000  C
  C1757    1.0000 0.15110  0.15110  0.62230  Biso   1.000  C
  C1758    1.0000 0.15110  0.37770  0.15110  Biso   1.000  C
  C1759    1.0000 0.15110  0.84890  0.37770  Biso   1.000  C
  C1760    1.0000 0.34890  0.62230  0.34890  Biso   1.000  C
  C1761    1.0000 0.84890  0.62230  0.15110  Biso   1.000  C
  C1762    1.0000 0.65110  0.62230  0.65110  Biso   1.000  C
  C1763    1.0000 0.34890  0.65110  0.62230  Biso   1.000  C
  C1764    1.0000 0.12230  0.84890  0.65110  Biso   1.000  C
  C1765    1.0000 0.87770  0.15110  0.65110  Biso   1.000  C
  C1766    1.0000 0.34890  0.34890  0.37770  Biso   1.000  C
  C1767    1.0000 0.87770  0.84890  0.34890  Biso   1.000  C
  C1768    1.0000 0.65110  0.34890  0.62230  Biso   1.000  C
  C1769    1.0000 0.65110  0.65110  0.37770  Biso   1.000  C
  C1770    1.0000 0.12230  0.15110  0.34890  Biso   1.000  C
  C1771    1.0000 0.12230  0.65110  0.15110  Biso   1.000  C
  C1772    1.0000 0.87770  0.34890  0.15110  Biso   1.000  C
  C1773    1.0000 0.84890  0.84890  0.62230  Biso   1.000  C
  C1774    1.0000 0.84890  0.15110  0.37770  Biso   1.000  C
  C1775    1.0000 0.34890  0.37770  0.65110  Biso   1.000  C
  C1776    1.0000 0.65110  0.37770  0.34890  Biso   1.000  C
  C1777    1.0000 0.65110  0.12230  0.84890  Biso   1.000  C
  C1778    1.0000 0.37770  0.15110  0.84890  Biso   1.000  C
  C1779    1.0000 0.34890  0.87770  0.84890  Biso   1.000  C
  C1780    1.0000 0.62230  0.84890  0.84890  Biso   1.000  C
  C1781    1.0000 0.65110  0.65110  0.62230  Biso   1.000  C
  C1782    1.0000 0.65110  0.87770  0.15110  Biso   1.000  C
  C1783    1.0000 0.65110  0.34890  0.37770  Biso   1.000  C
  C1784    1.0000 0.84890  0.12230  0.34890  Biso   1.000  C
  C1785    1.0000 0.34890  0.12230  0.15110  Biso   1.000  C
  C1786    1.0000 0.15110  0.12230  0.65110  Biso   1.000  C
  C1787    1.0000 0.84890  0.15110  0.62230  Biso   1.000  C
  C1788    1.0000 0.62230  0.34890  0.65110  Biso   1.000  C
  C1789    1.0000 0.37770  0.65110  0.65110  Biso   1.000  C
  C1790    1.0000 0.84890  0.84890  0.37770  Biso   1.000  C
  C1791    1.0000 0.37770  0.34890  0.34890  Biso   1.000  C
  C1792    1.0000 0.15110  0.84890  0.62230  Biso   1.000  C
  C1793    1.0000 0.15110  0.15110  0.37770  Biso   1.000  C
  C1794    1.0000 0.62230  0.65110  0.34890  Biso   1.000  C
  C1795    1.0000 0.62230  0.15110  0.15110  Biso   1.000  C
  C1796    1.0000 0.37770  0.84890  0.15110  Biso   1.000  C
  C1797    1.0000 0.34890  0.34890  0.62230  Biso   1.000  C
  C1798    1.0000 0.34890  0.65110  0.37770  Biso   1.000  C
  C1799    1.0000 0.84890  0.87770  0.65110  Biso   1.000  C
  C1800    1.0000 0.15110  0.87770  0.34890  Biso   1.000  C
  C1801    1.0000 0.65110  0.62230  0.34890  Biso   1.000  C
  C1802    1.0000 0.37770  0.65110  0.34890  Biso   1.000  C
  C1803    1.0000 0.34890  0.37770  0.34890  Biso   1.000  C
  C1804    1.0000 0.62230  0.34890  0.34890  Biso   1.000  C
  C1805    1.0000 0.65110  0.15110  0.12230  Biso   1.000  C
  C1806    1.0000 0.65110  0.37770  0.65110  Biso   1.000  C
  C1807    1.0000 0.65110  0.84890  0.87770  Biso   1.000  C
  C1808    1.0000 0.84890  0.62230  0.84890  Biso   1.000  C
  C1809    1.0000 0.34890  0.62230  0.65110  Biso   1.000  C
  C1810    1.0000 0.15110  0.62230  0.15110  Biso   1.000  C
  C1811    1.0000 0.84890  0.65110  0.12230  Biso   1.000  C
  C1812    1.0000 0.62230  0.84890  0.15110  Biso   1.000  C
  C1813    1.0000 0.37770  0.15110  0.15110  Biso   1.000  C
  C1814    1.0000 0.84890  0.34890  0.87770  Biso   1.000  C
  C1815    1.0000 0.37770  0.84890  0.84890  Biso   1.000  C
  C1816    1.0000 0.15110  0.34890  0.12230  Biso   1.000  C
  C1817    1.0000 0.15110  0.65110  0.87770  Biso   1.000  C
  C1818    1.0000 0.62230  0.15110  0.84890  Biso   1.000  C
  C1819    1.0000 0.62230  0.65110  0.65110  Biso   1.000  C
  C1820    1.0000 0.37770  0.34890  0.65110  Biso   1.000  C
  C1821    1.0000 0.34890  0.84890  0.12230  Biso   1.000  C
  C1822    1.0000 0.34890  0.15110  0.87770  Biso   1.000  C
  C1823    1.0000 0.84890  0.37770  0.15110  Biso   1.000  C
  C1824    1.0000 0.15110  0.37770  0.84890  Biso   1.000  C
  H673     1.0000 0.15620  0.10800  0.34380  Biso   1.000  H
  H674     1.0000 0.89200  0.15620  0.34380  Biso   1.000  H
  H675     1.0000 0.84380  0.89200  0.34380  Biso   1.000  H
  H676     1.0000 0.10800  0.84380  0.34380  Biso   1.000  H
  H677     1.0000 0.15620  0.65620  0.10800  Biso   1.000  H
  H678     1.0000 0.15620  0.89200  0.65620  Biso   1.000  H
  H679     1.0000 0.15620  0.34380  0.89200  Biso   1.000  H
  H680     1.0000 0.34380  0.10800  0.84380  Biso   1.000  H
  H681     1.0000 0.84380  0.10800  0.65620  Biso   1.000  H
  H682     1.0000 0.65620  0.10800  0.15620  Biso   1.000  H
  H683     1.0000 0.34380  0.15620  0.10800  Biso   1.000  H
  H684     1.0000 0.10800  0.34380  0.15620  Biso   1.000  H
  H685     1.0000 0.89200  0.65620  0.15620  Biso   1.000  H
  H686     1.0000 0.34380  0.84380  0.89200  Biso   1.000  H
  H687     1.0000 0.89200  0.34380  0.84380  Biso   1.000  H
  H688     1.0000 0.65620  0.84380  0.10800  Biso   1.000  H
  H689     1.0000 0.65620  0.15620  0.89200  Biso   1.000  H
  H690     1.0000 0.10800  0.65620  0.84380  Biso   1.000  H
  H691     1.0000 0.10800  0.15620  0.65620  Biso   1.000  H
  H692     1.0000 0.89200  0.84380  0.65620  Biso   1.000  H
  H693     1.0000 0.84380  0.34380  0.10800  Biso   1.000  H
  H694     1.0000 0.84380  0.65620  0.89200  Biso   1.000  H
  H695     1.0000 0.34380  0.89200  0.15620  Biso   1.000  H
  H696     1.0000 0.65620  0.89200  0.84380  Biso   1.000  H
  H697     1.0000 0.15620  0.60800  0.84380  Biso   1.000  H
  H698     1.0000 0.89200  0.65620  0.84380  Biso   1.000  H
  H699     1.0000 0.84380  0.39200  0.84380  Biso   1.000  H
  H700     1.0000 0.10800  0.34380  0.84380  Biso   1.000  H
  H701     1.0000 0.15620  0.15620  0.60800  Biso   1.000  H
  H702     1.0000 0.15620  0.39200  0.15620  Biso   1.000  H
  H703     1.0000 0.15620  0.84380  0.39200  Biso   1.000  H
  H704     1.0000 0.34380  0.60800  0.34380  Biso   1.000  H
  H705     1.0000 0.84380  0.60800  0.15620  Biso   1.000  H
  H706     1.0000 0.65620  0.60800  0.65620  Biso   1.000  H
  H707     1.0000 0.34380  0.65620  0.60800  Biso   1.000  H
  H708     1.0000 0.10800  0.84380  0.65620  Biso   1.000  H
  H709     1.0000 0.89200  0.15620  0.65620  Biso   1.000  H
  H710     1.0000 0.34380  0.34380  0.39200  Biso   1.000  H
  H711     1.0000 0.89200  0.84380  0.34380  Biso   1.000  H
  H712     1.0000 0.65620  0.34380  0.60800  Biso   1.000  H
  H713     1.0000 0.65620  0.65620  0.39200  Biso   1.000  H
  H714     1.0000 0.10800  0.15620  0.34380  Biso   1.000  H
  H715     1.0000 0.10800  0.65620  0.15620  Biso   1.000  H
  H716     1.0000 0.89200  0.34380  0.15620  Biso   1.000  H
  H717     1.0000 0.84380  0.84380  0.60800  Biso   1.000  H
  H718     1.0000 0.84380  0.15620  0.39200  Biso   1.000  H
  H719     1.0000 0.34380  0.39200  0.65620  Biso   1.000  H
  H720     1.0000 0.65620  0.39200  0.34380  Biso   1.000  H
  H721     1.0000 0.65620  0.10800  0.84380  Biso   1.000  H
  H722     1.0000 0.39200  0.15620  0.84380  Biso   1.000  H
  H723     1.0000 0.34380  0.89200  0.84380  Biso   1.000  H
  H724     1.0000 0.60800  0.84380  0.84380  Biso   1.000  H
  H725     1.0000 0.65620  0.65620  0.60800  Biso   1.000  H
  H726     1.0000 0.65620  0.89200  0.15620  Biso   1.000  H
  H727     1.0000 0.65620  0.34380  0.39200  Biso   1.000  H
  H728     1.0000 0.84380  0.10800  0.34380  Biso   1.000  H
  H729     1.0000 0.34380  0.10800  0.15620  Biso   1.000  H
  H730     1.0000 0.15620  0.10800  0.65620  Biso   1.000  H
  H731     1.0000 0.84380  0.15620  0.60800  Biso   1.000  H
  H732     1.0000 0.60800  0.34380  0.65620  Biso   1.000  H
  H733     1.0000 0.39200  0.65620  0.65620  Biso   1.000  H
  H734     1.0000 0.84380  0.84380  0.39200  Biso   1.000  H
  H735     1.0000 0.39200  0.34380  0.34380  Biso   1.000  H
  H736     1.0000 0.15620  0.84380  0.60800  Biso   1.000  H
  H737     1.0000 0.15620  0.15620  0.39200  Biso   1.000  H
  H738     1.0000 0.60800  0.65620  0.34380  Biso   1.000  H
  H739     1.0000 0.60800  0.15620  0.15620  Biso   1.000  H
  H740     1.0000 0.39200  0.84380  0.15620  Biso   1.000  H
  H741     1.0000 0.34380  0.34380  0.60800  Biso   1.000  H
  H742     1.0000 0.34380  0.65620  0.39200  Biso   1.000  H
  H743     1.0000 0.84380  0.89200  0.65620  Biso   1.000  H
  H744     1.0000 0.15620  0.89200  0.34380  Biso   1.000  H
  H745     1.0000 0.65620  0.60800  0.34380  Biso   1.000  H
  H746     1.0000 0.39200  0.65620  0.34380  Biso   1.000  H
  H747     1.0000 0.34380  0.39200  0.34380  Biso   1.000  H
  H748     1.0000 0.60800  0.34380  0.34380  Biso   1.000  H
  H749     1.0000 0.65620  0.15620  0.10800  Biso   1.000  H
  H750     1.0000 0.65620  0.39200  0.65620  Biso   1.000  H
  H751     1.0000 0.65620  0.84380  0.89200  Biso   1.000  H
  H752     1.0000 0.84380  0.60800  0.84380  Biso   1.000  H
  H753     1.0000 0.34380  0.60800  0.65620  Biso   1.000  H
  H754     1.0000 0.15620  0.60800  0.15620  Biso   1.000  H
  H755     1.0000 0.84380  0.65620  0.10800  Biso   1.000  H
  H756     1.0000 0.60800  0.84380  0.15620  Biso   1.000  H
  H757     1.0000 0.39200  0.15620  0.15620  Biso   1.000  H
  H758     1.0000 0.84380  0.34380  0.89200  Biso   1.000  H
  H759     1.0000 0.39200  0.84380  0.84380  Biso   1.000  H
  H760     1.0000 0.15620  0.34380  0.10800  Biso   1.000  H
  H761     1.0000 0.15620  0.65620  0.89200  Biso   1.000  H
  H762     1.0000 0.60800  0.15620  0.84380  Biso   1.000  H
  H763     1.0000 0.60800  0.65620  0.65620  Biso   1.000  H
  H764     1.0000 0.39200  0.34380  0.65620  Biso   1.000  H
  H765     1.0000 0.34380  0.84380  0.10800  Biso   1.000  H
  H766     1.0000 0.34380  0.15620  0.89200  Biso   1.000  H
  H767     1.0000 0.84380  0.39200  0.15620  Biso   1.000  H
  H768     1.0000 0.15620  0.39200  0.84380  Biso   1.000  H
  C1825    1.0000 0.13290  0.13290  0.33830  Biso   1.000  C
  C1826    1.0000 0.86710  0.13290  0.33830  Biso   1.000  C
  C1827    1.0000 0.86710  0.86710  0.33830  Biso   1.000  C
  C1828    1.0000 0.13290  0.86710  0.33830  Biso   1.000  C
  C1829    1.0000 0.13290  0.66170  0.13290  Biso   1.000  C
  C1830    1.0000 0.13290  0.86710  0.66170  Biso   1.000  C
  C1831    1.0000 0.13290  0.33830  0.86710  Biso   1.000  C
  C1832    1.0000 0.33830  0.13290  0.86710  Biso   1.000  C
  C1833    1.0000 0.86710  0.13290  0.66170  Biso   1.000  C
  C1834    1.0000 0.66170  0.13290  0.13290  Biso   1.000  C
  C1835    1.0000 0.33830  0.13290  0.13290  Biso   1.000  C
  C1836    1.0000 0.13290  0.33830  0.13290  Biso   1.000  C
  C1837    1.0000 0.86710  0.66170  0.13290  Biso   1.000  C
  C1838    1.0000 0.33830  0.86710  0.86710  Biso   1.000  C
  C1839    1.0000 0.86710  0.33830  0.86710  Biso   1.000  C
  C1840    1.0000 0.66170  0.86710  0.13290  Biso   1.000  C
  C1841    1.0000 0.66170  0.13290  0.86710  Biso   1.000  C
  C1842    1.0000 0.13290  0.66170  0.86710  Biso   1.000  C
  C1843    1.0000 0.13290  0.13290  0.66170  Biso   1.000  C
  C1844    1.0000 0.86710  0.86710  0.66170  Biso   1.000  C
  C1845    1.0000 0.86710  0.33830  0.13290  Biso   1.000  C
  C1846    1.0000 0.86710  0.66170  0.86710  Biso   1.000  C
  C1847    1.0000 0.33830  0.86710  0.13290  Biso   1.000  C
  C1848    1.0000 0.66170  0.86710  0.86710  Biso   1.000  C
  C1849    1.0000 0.13290  0.63290  0.83830  Biso   1.000  C
  C1850    1.0000 0.86710  0.63290  0.83830  Biso   1.000  C
  C1851    1.0000 0.86710  0.36710  0.83830  Biso   1.000  C
  C1852    1.0000 0.13290  0.36710  0.83830  Biso   1.000  C
  C1853    1.0000 0.13290  0.16170  0.63290  Biso   1.000  C
  C1854    1.0000 0.13290  0.36710  0.16170  Biso   1.000  C
  C1855    1.0000 0.13290  0.83830  0.36710  Biso   1.000  C
  C1856    1.0000 0.33830  0.63290  0.36710  Biso   1.000  C
  C1857    1.0000 0.86710  0.63290  0.16170  Biso   1.000  C
  C1858    1.0000 0.66170  0.63290  0.63290  Biso   1.000  C
  C1859    1.0000 0.33830  0.63290  0.63290  Biso   1.000  C
  C1860    1.0000 0.13290  0.83830  0.63290  Biso   1.000  C
  C1861    1.0000 0.86710  0.16170  0.63290  Biso   1.000  C
  C1862    1.0000 0.33830  0.36710  0.36710  Biso   1.000  C
  C1863    1.0000 0.86710  0.83830  0.36710  Biso   1.000  C
  C1864    1.0000 0.66170  0.36710  0.63290  Biso   1.000  C
  C1865    1.0000 0.66170  0.63290  0.36710  Biso   1.000  C
  C1866    1.0000 0.13290  0.16170  0.36710  Biso   1.000  C
  C1867    1.0000 0.13290  0.63290  0.16170  Biso   1.000  C
  C1868    1.0000 0.86710  0.36710  0.16170  Biso   1.000  C
  C1869    1.0000 0.86710  0.83830  0.63290  Biso   1.000  C
  C1870    1.0000 0.86710  0.16170  0.36710  Biso   1.000  C
  C1871    1.0000 0.33830  0.36710  0.63290  Biso   1.000  C
  C1872    1.0000 0.66170  0.36710  0.36710  Biso   1.000  C
  C1873    1.0000 0.63290  0.13290  0.83830  Biso   1.000  C
  C1874    1.0000 0.36710  0.13290  0.83830  Biso   1.000  C
  C1875    1.0000 0.36710  0.86710  0.83830  Biso   1.000  C
  C1876    1.0000 0.63290  0.86710  0.83830  Biso   1.000  C
  C1877    1.0000 0.63290  0.66170  0.63290  Biso   1.000  C
  C1878    1.0000 0.63290  0.86710  0.16170  Biso   1.000  C
  C1879    1.0000 0.63290  0.33830  0.36710  Biso   1.000  C
  C1880    1.0000 0.83830  0.13290  0.36710  Biso   1.000  C
  C1881    1.0000 0.36710  0.13290  0.16170  Biso   1.000  C
  C1882    1.0000 0.16170  0.13290  0.63290  Biso   1.000  C
  C1883    1.0000 0.83830  0.13290  0.63290  Biso   1.000  C
  C1884    1.0000 0.63290  0.33830  0.63290  Biso   1.000  C
  C1885    1.0000 0.36710  0.66170  0.63290  Biso   1.000  C
  C1886    1.0000 0.83830  0.86710  0.36710  Biso   1.000  C
  C1887    1.0000 0.36710  0.33830  0.36710  Biso   1.000  C
  C1888    1.0000 0.16170  0.86710  0.63290  Biso   1.000  C
  C1889    1.0000 0.16170  0.13290  0.36710  Biso   1.000  C
  C1890    1.0000 0.63290  0.66170  0.36710  Biso   1.000  C
  C1891    1.0000 0.63290  0.13290  0.16170  Biso   1.000  C
  C1892    1.0000 0.36710  0.86710  0.16170  Biso   1.000  C
  C1893    1.0000 0.36710  0.33830  0.63290  Biso   1.000  C
  C1894    1.0000 0.36710  0.66170  0.36710  Biso   1.000  C
  C1895    1.0000 0.83830  0.86710  0.63290  Biso   1.000  C
  C1896    1.0000 0.16170  0.86710  0.36710  Biso   1.000  C
  C1897    1.0000 0.63290  0.63290  0.33830  Biso   1.000  C
  C1898    1.0000 0.36710  0.63290  0.33830  Biso   1.000  C
  C1899    1.0000 0.36710  0.36710  0.33830  Biso   1.000  C
  C1900    1.0000 0.63290  0.36710  0.33830  Biso   1.000  C
  C1901    1.0000 0.63290  0.16170  0.13290  Biso   1.000  C
  C1902    1.0000 0.63290  0.36710  0.66170  Biso   1.000  C
  C1903    1.0000 0.63290  0.83830  0.86710  Biso   1.000  C
  C1904    1.0000 0.83830  0.63290  0.86710  Biso   1.000  C
  C1905    1.0000 0.36710  0.63290  0.66170  Biso   1.000  C
  C1906    1.0000 0.16170  0.63290  0.13290  Biso   1.000  C
  C1907    1.0000 0.83830  0.63290  0.13290  Biso   1.000  C
  C1908    1.0000 0.63290  0.83830  0.13290  Biso   1.000  C
  C1909    1.0000 0.36710  0.16170  0.13290  Biso   1.000  C
  C1910    1.0000 0.83830  0.36710  0.86710  Biso   1.000  C
  C1911    1.0000 0.36710  0.83830  0.86710  Biso   1.000  C
  C1912    1.0000 0.16170  0.36710  0.13290  Biso   1.000  C
  C1913    1.0000 0.16170  0.63290  0.86710  Biso   1.000  C
  C1914    1.0000 0.63290  0.16170  0.86710  Biso   1.000  C
  C1915    1.0000 0.63290  0.63290  0.66170  Biso   1.000  C
  C1916    1.0000 0.36710  0.36710  0.66170  Biso   1.000  C
  C1917    1.0000 0.36710  0.83830  0.13290  Biso   1.000  C
  C1918    1.0000 0.36710  0.16170  0.86710  Biso   1.000  C
  C1919    1.0000 0.83830  0.36710  0.13290  Biso   1.000  C
  C1920    1.0000 0.16170  0.36710  0.86710  Biso   1.000  C
  Zn1      1.0000 0.99450  0.96814  0.96813  Biso   1.000  Zn
  O2      1.0000 0.01318  0.98682  0.98681  Biso   1.000  O
  O3      1.0000 0.99956  0.97319  0.93659  Biso   1.000  O
  C4      1.0000 0.01318  0.98682  0.92755  Biso   1.000  C
  C5      1.0000 0.01318  0.98682  0.90264  Biso   1.000  C
  S6      1.0000 0.02569  0.99933  0.88818  Biso   1.000  S
  C7      1.0000 0.02124  0.99487  0.86511  Biso   1.000  C
  O8      1.0000 0.02681  0.00045  0.79363  Biso   1.000  O
  C9      1.0000 0.01318  0.98682  0.80267  Biso   1.000  C
  C10      1.0000 0.01318  0.98682  0.82758  Biso   1.000  C
  S11      1.0000 0.00067  0.97431  0.84204  Biso   1.000  S
  C12      1.0000 0.00513  0.97876  0.86511  Biso   1.000  C
  O13      1.0000 0.02681  0.00045  0.93659  Biso   1.000  O
  C14      1.0000 0.00067  0.97431  0.88818  Biso   1.000  C
  H15      1.0000 0.99021  0.96385  0.89285  Biso   1.000  H
  O16      1.0000 0.99956  0.97319  0.79363  Biso   1.000  O
  C17      1.0000 0.02569  0.99933  0.84204  Biso   1.000  C
  H18      1.0000 0.03615  0.00979  0.83737  Biso   1.000  H
  Zn19      1.0000 0.03187  0.00550  0.96813  Biso   1.000  Zn
  O20      1.0000 0.06341  0.00045  0.97318  Biso   1.000  O
  C21      1.0000 0.07245  0.98682  0.98681  Biso   1.000  C
  C22      1.0000 0.09736  0.98682  0.98681  Biso   1.000  C
  S23      1.0000 0.11182  0.97431  0.99932  Biso   1.000  S
  C24      1.0000 0.13489  0.97876  0.99487  Biso   1.000  C
  O25      1.0000 0.20637  0.97319  0.00044  Biso   1.000  O
  C26      1.0000 0.19732  0.98682  0.98681  Biso   1.000  C
  C27      1.0000 0.17242  0.98682  0.98681  Biso   1.000  C
  S28      1.0000 0.15796  0.99933  0.97430  Biso   1.000  S
  C29      1.0000 0.13489  0.99487  0.97876  Biso   1.000  C
  O30      1.0000 0.06341  0.97319  0.00044  Biso   1.000  O
  C31      1.0000 0.11182  0.99933  0.97430  Biso   1.000  C
  H32      1.0000 0.10715  0.00979  0.96384  Biso   1.000  H
  O33      1.0000 0.20637  0.00045  0.97318  Biso   1.000  O
  C34      1.0000 0.15796  0.97431  0.99932  Biso   1.000  C
  H35      1.0000 0.16263  0.96385  0.00978  Biso   1.000  H
  Zn36      1.0000 0.03187  0.96814  0.00550  Biso   1.000  Zn
  O37      1.0000 0.02681  0.93659  0.00044  Biso   1.000  O
  C38      1.0000 0.01318  0.92755  0.98681  Biso   1.000  C
  C39      1.0000 0.01318  0.90265  0.98681  Biso   1.000  C
  S40      1.0000 0.00067  0.88818  0.97430  Biso   1.000  S
  C41      1.0000 0.00513  0.86511  0.97876  Biso   1.000  C
  O42      1.0000 0.99956  0.79364  0.97318  Biso   1.000  O
  C43      1.0000 0.01318  0.80268  0.98681  Biso   1.000  C
  C44      1.0000 0.01318  0.82758  0.98681  Biso   1.000  C
  S45      1.0000 0.02569  0.84204  0.99932  Biso   1.000  S
  C46      1.0000 0.02124  0.86511  0.99487  Biso   1.000  C
  O47      1.0000 0.99956  0.93659  0.97318  Biso   1.000  O
  C48      1.0000 0.02569  0.88818  0.99932  Biso   1.000  C
  H49      1.0000 0.03615  0.89285  0.00978  Biso   1.000  H
  O50      1.0000 0.02681  0.79364  0.00044  Biso   1.000  O
  C51      1.0000 0.00067  0.84204  0.97430  Biso   1.000  C
  H52      1.0000 0.99021  0.83737  0.96384  Biso   1.000  H
  Zn53      1.0000 0.99450  0.96814  0.76209  Biso   1.000  Zn
  Zn54      1.0000 0.99450  0.76209  0.96813  Biso   1.000  Zn
  Zn55      1.0000 0.23791  0.96814  0.00550  Biso   1.000  Zn
  Zn56      1.0000 0.03187  0.76209  0.00550  Biso   1.000  Zn
  Zn57      1.0000 0.23791  0.00550  0.96813  Biso   1.000  Zn
  Zn58      1.0000 0.03187  0.00550  0.76209  Biso   1.000  Zn
  Zn59      1.0000 0.99450  0.00550  0.00550  Biso   1.000  Zn
  O60      1.0000 0.01318  0.98682  0.74340  Biso   1.000  O
  O61      1.0000 0.99956  0.93659  0.75703  Biso   1.000  O
  O62      1.0000 0.02681  0.97319  0.03704  Biso   1.000  O
  O63      1.0000 0.96296  0.97319  0.75703  Biso   1.000  O
  O64      1.0000 0.96296  0.97319  0.97318  Biso   1.000  O
  O65      1.0000 0.02681  0.03704  0.97318  Biso   1.000  O
  C66      1.0000 0.26465  0.99487  0.62170  Biso   1.000  C
  O67      1.0000 0.27022  0.00045  0.03704  Biso   1.000  O
  C68      1.0000 0.25659  0.98682  0.04608  Biso   1.000  C
  C69      1.0000 0.25659  0.98682  0.07099  Biso   1.000  C
  S70      1.0000 0.24408  0.97431  0.08545  Biso   1.000  S
  C71      1.0000 0.24854  0.97876  0.62170  Biso   1.000  C
  O72      1.0000 0.24296  0.97319  0.03704  Biso   1.000  O
  C73      1.0000 0.26910  0.99933  0.08545  Biso   1.000  C
  H74      1.0000 0.27956  0.00979  0.08078  Biso   1.000  H
  Zn75      1.0000 0.27527  0.00550  0.00550  Biso   1.000  Zn
  O76      1.0000 0.25659  0.98682  0.98681  Biso   1.000  O
  O77      1.0000 0.24296  0.93659  0.00044  Biso   1.000  O
  C78      1.0000 0.89148  0.97876  0.75146  Biso   1.000  C
  C79      1.0000 0.95392  0.98682  0.74340  Biso   1.000  C
  C80      1.0000 0.92901  0.98682  0.74340  Biso   1.000  C
  S81      1.0000 0.91455  0.99933  0.73089  Biso   1.000  S
  C82      1.0000 0.89148  0.99487  0.73535  Biso   1.000  C
  O83      1.0000 0.96296  0.00045  0.72978  Biso   1.000  O
  C84      1.0000 0.91455  0.97431  0.75591  Biso   1.000  C
  H85      1.0000 0.91922  0.96385  0.76637  Biso   1.000  H
  Zn86      1.0000 0.99450  0.00550  0.72472  Biso   1.000  Zn
  Zn87      1.0000 0.23791  0.96814  0.72472  Biso   1.000  Zn
  O88      1.0000 0.25659  0.98682  0.74340  Biso   1.000  O
  O89      1.0000 0.24296  0.97319  0.69318  Biso   1.000  O
  C90      1.0000 0.25659  0.98682  0.68414  Biso   1.000  C
  C91      1.0000 0.25659  0.98682  0.65923  Biso   1.000  C
  S92      1.0000 0.26910  0.99933  0.64477  Biso   1.000  S
  O93      1.0000 0.27022  0.00045  0.69318  Biso   1.000  O
  C94      1.0000 0.24408  0.97431  0.64477  Biso   1.000  C
  H95      1.0000 0.23362  0.96385  0.64944  Biso   1.000  H
  Zn96      1.0000 0.27527  0.00550  0.72472  Biso   1.000  Zn
  O97      1.0000 0.30682  0.00045  0.72978  Biso   1.000  O
  C98      1.0000 0.31586  0.98682  0.74340  Biso   1.000  C
  C99      1.0000 0.34076  0.98682  0.74340  Biso   1.000  C
  S100      1.0000 0.35523  0.97431  0.75591  Biso   1.000  S
  O101      1.0000 0.30682  0.97319  0.75703  Biso   1.000  O
  C102      1.0000 0.35523  0.99933  0.73089  Biso   1.000  C
  H103      1.0000 0.35056  0.00979  0.72043  Biso   1.000  H
  Zn104      1.0000 0.27527  0.96814  0.76209  Biso   1.000  Zn
  O105      1.0000 0.27022  0.93659  0.75703  Biso   1.000  O
  C106      1.0000 0.25659  0.92755  0.74340  Biso   1.000  C
  C107      1.0000 0.25659  0.90265  0.74340  Biso   1.000  C
  S108      1.0000 0.24408  0.88818  0.73089  Biso   1.000  S
  C109      1.0000 0.24854  0.86511  0.73535  Biso   1.000  C
  O110      1.0000 0.24296  0.79364  0.72978  Biso   1.000  O
  C111      1.0000 0.25659  0.80268  0.74340  Biso   1.000  C
  C112      1.0000 0.25659  0.82758  0.74340  Biso   1.000  C
  S113      1.0000 0.26910  0.84204  0.75591  Biso   1.000  S
  C114      1.0000 0.26465  0.86511  0.75146  Biso   1.000  C
  O115      1.0000 0.24296  0.93659  0.72978  Biso   1.000  O
  C116      1.0000 0.26910  0.88818  0.75591  Biso   1.000  C
  H117      1.0000 0.27956  0.89285  0.76637  Biso   1.000  H
  O118      1.0000 0.27022  0.79364  0.75703  Biso   1.000  O
  C119      1.0000 0.24408  0.84204  0.73089  Biso   1.000  C
  H120      1.0000 0.23362  0.83737  0.72043  Biso   1.000  H
  Zn121      1.0000 0.23791  0.76209  0.72472  Biso   1.000  Zn
  Zn122      1.0000 0.27527  0.76209  0.76209  Biso   1.000  Zn
  Zn123      1.0000 0.23791  0.00550  0.76209  Biso   1.000  Zn
  O124      1.0000 0.27022  0.97319  0.79363  Biso   1.000  O
  O125      1.0000 0.20637  0.97319  0.72978  Biso   1.000  O
  O126      1.0000 0.27022  0.03704  0.72978  Biso   1.000  O
  C127      1.0000 0.24854  0.62170  0.97876  Biso   1.000  C
  O128      1.0000 0.24296  0.03704  0.97318  Biso   1.000  O
  C129      1.0000 0.25659  0.04609  0.98681  Biso   1.000  C
  C130      1.0000 0.25659  0.07099  0.98681  Biso   1.000  C
  S131      1.0000 0.26910  0.08545  0.99932  Biso   1.000  S
  C132      1.0000 0.26465  0.62170  0.99487  Biso   1.000  C
  O133      1.0000 0.27022  0.03704  0.00044  Biso   1.000  O
  C134      1.0000 0.24408  0.08545  0.97430  Biso   1.000  C
  H135      1.0000 0.23362  0.08078  0.96384  Biso   1.000  H
  C136      1.0000 0.89148  0.73535  0.99487  Biso   1.000  C
  O137      1.0000 0.96296  0.72978  0.00044  Biso   1.000  O
  C138      1.0000 0.95392  0.74341  0.98681  Biso   1.000  C
  C139      1.0000 0.92901  0.74341  0.98681  Biso   1.000  C
  S140      1.0000 0.91455  0.75592  0.97430  Biso   1.000  S
  C141      1.0000 0.89148  0.75147  0.97876  Biso   1.000  C
  O142      1.0000 0.96296  0.75704  0.97318  Biso   1.000  O
  C143      1.0000 0.91455  0.73090  0.99932  Biso   1.000  C
  H144      1.0000 0.91922  0.72044  0.00978  Biso   1.000  H
  Zn145      1.0000 0.99450  0.72473  0.00550  Biso   1.000  Zn
  Zn146      1.0000 0.23791  0.72473  0.96813  Biso   1.000  Zn
  O147      1.0000 0.25659  0.74341  0.98681  Biso   1.000  O
  O148      1.0000 0.24296  0.72978  0.93659  Biso   1.000  O
  C149      1.0000 0.25659  0.74341  0.92755  Biso   1.000  C
  C150      1.0000 0.25659  0.74341  0.90264  Biso   1.000  C
  S151      1.0000 0.26910  0.75592  0.88818  Biso   1.000  S
  C152      1.0000 0.26465  0.75147  0.86511  Biso   1.000  C
  O153      1.0000 0.27022  0.75704  0.79363  Biso   1.000  O
  C154      1.0000 0.25659  0.74341  0.80267  Biso   1.000  C
  C155      1.0000 0.25659  0.74341  0.82758  Biso   1.000  C
  S156      1.0000 0.24408  0.73090  0.84204  Biso   1.000  S
  C157      1.0000 0.24854  0.73535  0.86511  Biso   1.000  C
  O158      1.0000 0.27022  0.75704  0.93659  Biso   1.000  O
  C159      1.0000 0.24408  0.73090  0.88818  Biso   1.000  C
  H160      1.0000 0.23362  0.72044  0.89285  Biso   1.000  H
  O161      1.0000 0.24296  0.72978  0.79363  Biso   1.000  O
  C162      1.0000 0.26910  0.75592  0.84204  Biso   1.000  C
  H163      1.0000 0.27956  0.76638  0.83737  Biso   1.000  H
  Zn164      1.0000 0.27527  0.76209  0.96813  Biso   1.000  Zn
  O165      1.0000 0.30682  0.75704  0.97318  Biso   1.000  O
  C166      1.0000 0.31586  0.74341  0.98681  Biso   1.000  C
  C167      1.0000 0.34076  0.74341  0.98681  Biso   1.000  C
  S168      1.0000 0.35523  0.73090  0.99932  Biso   1.000  S
  O169      1.0000 0.30682  0.72978  0.00044  Biso   1.000  O
  C170      1.0000 0.35523  0.75592  0.97430  Biso   1.000  C
  H171      1.0000 0.35056  0.76638  0.96384  Biso   1.000  H
  Zn172      1.0000 0.27527  0.72473  0.00550  Biso   1.000  Zn
  O173      1.0000 0.27022  0.69318  0.00044  Biso   1.000  O
  C174      1.0000 0.25659  0.68414  0.98681  Biso   1.000  C
  C175      1.0000 0.25659  0.65924  0.98681  Biso   1.000  C
  S176      1.0000 0.24408  0.64477  0.97430  Biso   1.000  S
  O177      1.0000 0.24296  0.69318  0.97318  Biso   1.000  O
  C178      1.0000 0.26910  0.64477  0.99932  Biso   1.000  C
  H179      1.0000 0.27956  0.64944  0.00978  Biso   1.000  H
  Zn180      1.0000 0.23791  0.72473  0.76209  Biso   1.000  Zn
  Zn181      1.0000 0.23791  0.76209  0.00550  Biso   1.000  Zn
  O182      1.0000 0.25659  0.74341  0.74340  Biso   1.000  O
  O183      1.0000 0.24296  0.69318  0.75703  Biso   1.000  O
  O184      1.0000 0.27022  0.72978  0.03704  Biso   1.000  O
  O185      1.0000 0.20637  0.72978  0.75703  Biso   1.000  O
  O186      1.0000 0.20637  0.72978  0.97318  Biso   1.000  O
  O187      1.0000 0.27022  0.79364  0.97318  Biso   1.000  O
  C188      1.0000 0.00513  0.62170  0.73535  Biso   1.000  C
  O189      1.0000 0.99956  0.03704  0.72978  Biso   1.000  O
  C190      1.0000 0.01318  0.04609  0.74340  Biso   1.000  C
  C191      1.0000 0.01318  0.07099  0.74340  Biso   1.000  C
  S192      1.0000 0.02569  0.08545  0.75591  Biso   1.000  S
  C193      1.0000 0.02124  0.62170  0.75146  Biso   1.000  C
  O194      1.0000 0.02681  0.03704  0.75703  Biso   1.000  O
  C195      1.0000 0.00067  0.08545  0.73089  Biso   1.000  C
  H196      1.0000 0.99021  0.08078  0.72043  Biso   1.000  H
  C197      1.0000 0.02124  0.75147  0.62170  Biso   1.000  C
  O198      1.0000 0.02681  0.75704  0.03704  Biso   1.000  O
  C199      1.0000 0.01318  0.74341  0.04608  Biso   1.000  C
  C200      1.0000 0.01318  0.74341  0.07099  Biso   1.000  C
  S201      1.0000 0.00067  0.73090  0.08545  Biso   1.000  S
  C202      1.0000 0.00513  0.73535  0.62170  Biso   1.000  C
  O203      1.0000 0.99956  0.72978  0.03704  Biso   1.000  O
  C204      1.0000 0.02569  0.75592  0.08545  Biso   1.000  C
  H205      1.0000 0.03615  0.76638  0.08078  Biso   1.000  H
  O206      1.0000 0.01318  0.74341  0.98681  Biso   1.000  O
  O207      1.0000 0.99956  0.69318  0.00044  Biso   1.000  O
  Zn208      1.0000 0.99450  0.72473  0.72472  Biso   1.000  Zn
  O209      1.0000 0.01318  0.74341  0.74340  Biso   1.000  O
  O210      1.0000 0.99956  0.72978  0.69318  Biso   1.000  O
  C211      1.0000 0.01318  0.74341  0.68414  Biso   1.000  C
  C212      1.0000 0.01318  0.74341  0.65923  Biso   1.000  C
  S213      1.0000 0.02569  0.75592  0.64477  Biso   1.000  S
  O214      1.0000 0.02681  0.75704  0.69318  Biso   1.000  O
  C215      1.0000 0.00067  0.73090  0.64477  Biso   1.000  C
  H216      1.0000 0.99021  0.72044  0.64944  Biso   1.000  H
  Zn217      1.0000 0.03187  0.76209  0.72472  Biso   1.000  Zn
  O218      1.0000 0.06341  0.75704  0.72978  Biso   1.000  O
  C219      1.0000 0.07245  0.74341  0.74340  Biso   1.000  C
  C220      1.0000 0.09736  0.74341  0.74340  Biso   1.000  C
  S221      1.0000 0.11182  0.73090  0.75591  Biso   1.000  S
  C222      1.0000 0.13489  0.73535  0.75146  Biso   1.000  C
  C223      1.0000 0.19732  0.74341  0.74340  Biso   1.000  C
  C224      1.0000 0.17242  0.74341  0.74340  Biso   1.000  C
  S225      1.0000 0.15796  0.75592  0.73089  Biso   1.000  S
  C226      1.0000 0.13489  0.75147  0.73535  Biso   1.000  C
  O227      1.0000 0.06341  0.72978  0.75703  Biso   1.000  O
  C228      1.0000 0.11182  0.75592  0.73089  Biso   1.000  C
  H229      1.0000 0.10715  0.76638  0.72043  Biso   1.000  H
  O230      1.0000 0.20637  0.75704  0.72978  Biso   1.000  O
  C231      1.0000 0.15796  0.73090  0.75591  Biso   1.000  C
  H232      1.0000 0.16263  0.72044  0.76637  Biso   1.000  H
  Zn233      1.0000 0.03187  0.72473  0.76209  Biso   1.000  Zn
  O234      1.0000 0.02681  0.69318  0.75703  Biso   1.000  O
  C235      1.0000 0.01318  0.68414  0.74340  Biso   1.000  C
  C236      1.0000 0.01318  0.65924  0.74340  Biso   1.000  C
  S237      1.0000 0.00067  0.64477  0.73089  Biso   1.000  S
  O238      1.0000 0.99956  0.69318  0.72978  Biso   1.000  O
  C239      1.0000 0.02569  0.64477  0.75591  Biso   1.000  C
  H240      1.0000 0.03615  0.64945  0.76637  Biso   1.000  H
  Zn241      1.0000 0.99450  0.76209  0.76209  Biso   1.000  Zn
  O242      1.0000 0.02681  0.72978  0.79363  Biso   1.000  O
  O243      1.0000 0.96296  0.72978  0.72978  Biso   1.000  O
  O244      1.0000 0.02681  0.79364  0.72978  Biso   1.000  O
  H245      1.0000 0.27956  0.76638  0.89285  Biso   1.000  H
  H246      1.0000 0.23362  0.72044  0.83737  Biso   1.000  H
  C247      1.0000 0.19732  0.74341  0.98681  Biso   1.000  C
  C248      1.0000 0.17242  0.74341  0.98681  Biso   1.000  C
  S249      1.0000 0.15796  0.75592  0.99932  Biso   1.000  S
  C250      1.0000 0.13489  0.75147  0.99487  Biso   1.000  C
  O251      1.0000 0.06341  0.75704  0.00044  Biso   1.000  O
  C252      1.0000 0.07245  0.74341  0.98681  Biso   1.000  C
  C253      1.0000 0.09736  0.74341  0.98681  Biso   1.000  C
  S254      1.0000 0.11182  0.73090  0.97430  Biso   1.000  S
  C255      1.0000 0.13489  0.73535  0.97876  Biso   1.000  C
  O256      1.0000 0.20637  0.75704  0.00044  Biso   1.000  O
  C257      1.0000 0.15796  0.73090  0.97430  Biso   1.000  C
  H258      1.0000 0.16263  0.72044  0.96384  Biso   1.000  H
  O259      1.0000 0.06341  0.72978  0.97318  Biso   1.000  O
  C260      1.0000 0.11182  0.75592  0.99932  Biso   1.000  C
  H261      1.0000 0.10715  0.76638  0.00978  Biso   1.000  H
  O262      1.0000 0.24296  0.79364  0.00044  Biso   1.000  O
  C263      1.0000 0.25659  0.80268  0.98681  Biso   1.000  C
  C264      1.0000 0.25659  0.82758  0.98681  Biso   1.000  C
  S265      1.0000 0.26910  0.84204  0.97430  Biso   1.000  S
  C266      1.0000 0.26465  0.86511  0.97876  Biso   1.000  C
  O267      1.0000 0.27022  0.93659  0.97318  Biso   1.000  O
  C268      1.0000 0.25659  0.92755  0.98681  Biso   1.000  C
  C269      1.0000 0.25659  0.90265  0.98681  Biso   1.000  C
  S270      1.0000 0.24408  0.88818  0.99932  Biso   1.000  S
  C271      1.0000 0.24854  0.86511  0.99487  Biso   1.000  C
  C272      1.0000 0.24408  0.84204  0.99932  Biso   1.000  C
  H273      1.0000 0.23362  0.83737  0.00978  Biso   1.000  H
  C274      1.0000 0.26910  0.88818  0.97430  Biso   1.000  C
  H275      1.0000 0.27956  0.89285  0.96384  Biso   1.000  H
  Zn276      1.0000 0.27527  0.96814  0.96813  Biso   1.000  Zn
  Zn277      1.0000 0.03187  0.72473  0.96813  Biso   1.000  Zn
  O278      1.0000 0.24296  0.75704  0.03704  Biso   1.000  O
  O279      1.0000 0.30682  0.75704  0.75703  Biso   1.000  O
  O280      1.0000 0.99956  0.75704  0.79363  Biso   1.000  O
  C281      1.0000 0.01318  0.74341  0.80267  Biso   1.000  C
  C282      1.0000 0.01318  0.74341  0.82758  Biso   1.000  C
  S283      1.0000 0.02569  0.73090  0.84204  Biso   1.000  S
  C284      1.0000 0.02124  0.73535  0.86511  Biso   1.000  C
  O285      1.0000 0.02681  0.72978  0.93659  Biso   1.000  O
  C286      1.0000 0.01318  0.74341  0.92755  Biso   1.000  C
  C287      1.0000 0.01318  0.74341  0.90264  Biso   1.000  C
  S288      1.0000 0.00067  0.75592  0.88818  Biso   1.000  S
  C289      1.0000 0.00513  0.75147  0.86511  Biso   1.000  C
  C290      1.0000 0.00067  0.75592  0.84204  Biso   1.000  C
  H291      1.0000 0.99021  0.76638  0.83737  Biso   1.000  H
  O292      1.0000 0.99956  0.75704  0.93659  Biso   1.000  O
  C293      1.0000 0.02569  0.73090  0.88818  Biso   1.000  C
  H294      1.0000 0.03615  0.72044  0.89285  Biso   1.000  H
  H295      1.0000 0.10715  0.72044  0.76637  Biso   1.000  H
  H296      1.0000 0.16263  0.76638  0.72043  Biso   1.000  H
  C297      1.0000 0.01318  0.80268  0.74340  Biso   1.000  C
  C298      1.0000 0.01318  0.82758  0.74340  Biso   1.000  C
  S299      1.0000 0.00067  0.84204  0.75591  Biso   1.000  S
  C300      1.0000 0.00513  0.86511  0.75146  Biso   1.000  C
  C301      1.0000 0.01318  0.92755  0.74340  Biso   1.000  C
  C302      1.0000 0.01318  0.90265  0.74340  Biso   1.000  C
  S303      1.0000 0.02569  0.88818  0.73089  Biso   1.000  S
  C304      1.0000 0.02124  0.86511  0.73535  Biso   1.000  C
  O305      1.0000 0.99956  0.79364  0.75703  Biso   1.000  O
  C306      1.0000 0.02569  0.84204  0.73089  Biso   1.000  C
  H307      1.0000 0.03615  0.83737  0.72043  Biso   1.000  H
  O308      1.0000 0.02681  0.93659  0.72978  Biso   1.000  O
  C309      1.0000 0.00067  0.88818  0.75591  Biso   1.000  C
  H310      1.0000 0.99021  0.89285  0.76637  Biso   1.000  H
  Zn311      1.0000 0.03187  0.96814  0.72472  Biso   1.000  Zn
  O312      1.0000 0.96296  0.75704  0.75703  Biso   1.000  O
  H313      1.0000 0.03615  0.00979  0.89285  Biso   1.000  H
  H314      1.0000 0.99021  0.96385  0.83737  Biso   1.000  H
  C315      1.0000 0.95392  0.98682  0.98681  Biso   1.000  C
  C316      1.0000 0.92901  0.98682  0.98681  Biso   1.000  C
  S317      1.0000 0.91455  0.99933  0.99932  Biso   1.000  S
  C318      1.0000 0.89148  0.99487  0.99487  Biso   1.000  C
  C319      1.0000 0.89148  0.97876  0.97876  Biso   1.000  C
  O320      1.0000 0.96296  0.00045  0.00044  Biso   1.000  O
  C321      1.0000 0.91455  0.97431  0.97430  Biso   1.000  C
  H322      1.0000 0.91922  0.96385  0.96384  Biso   1.000  H
  O323      1.0000 0.99956  0.03704  0.00044  Biso   1.000  O
  C324      1.0000 0.01318  0.04609  0.98681  Biso   1.000  C
  C325      1.0000 0.01318  0.07099  0.98681  Biso   1.000  C
  S326      1.0000 0.02569  0.08545  0.97430  Biso   1.000  S
  C327      1.0000 0.02124  0.62170  0.97876  Biso   1.000  C
  C328      1.0000 0.00513  0.62170  0.99487  Biso   1.000  C
  C329      1.0000 0.00067  0.08545  0.99932  Biso   1.000  C
  H330      1.0000 0.99021  0.08078  0.00978  Biso   1.000  H
  O331      1.0000 0.99956  0.00045  0.03704  Biso   1.000  O
  O332      1.0000 0.06341  0.00045  0.75703  Biso   1.000  O
  O333      1.0000 0.30682  0.00045  0.00044  Biso   1.000  O
  C334      1.0000 0.31586  0.98682  0.98681  Biso   1.000  C
  C335      1.0000 0.34076  0.98682  0.98681  Biso   1.000  C
  S336      1.0000 0.35523  0.97431  0.97430  Biso   1.000  S
  O337      1.0000 0.30682  0.97319  0.97318  Biso   1.000  O
  C338      1.0000 0.35523  0.99933  0.99932  Biso   1.000  C
  H339      1.0000 0.35056  0.00979  0.00978  Biso   1.000  H
  O340      1.0000 0.02681  0.69318  0.97318  Biso   1.000  O
  C341      1.0000 0.01318  0.68414  0.98681  Biso   1.000  C
  C342      1.0000 0.01318  0.65924  0.98681  Biso   1.000  C
  S343      1.0000 0.00067  0.64477  0.99932  Biso   1.000  S
  C344      1.0000 0.02569  0.64477  0.97430  Biso   1.000  C
  H345      1.0000 0.03615  0.64945  0.96384  Biso   1.000  H
  C346      1.0000 0.25659  0.98682  0.80267  Biso   1.000  C
  C347      1.0000 0.25659  0.98682  0.82758  Biso   1.000  C
  S348      1.0000 0.24408  0.99933  0.84204  Biso   1.000  S
  C349      1.0000 0.24854  0.99487  0.86511  Biso   1.000  C
  O350      1.0000 0.24296  0.00045  0.93659  Biso   1.000  O
  C351      1.0000 0.25659  0.98682  0.92755  Biso   1.000  C
  C352      1.0000 0.25659  0.98682  0.90264  Biso   1.000  C
  S353      1.0000 0.26910  0.97431  0.88818  Biso   1.000  S
  C354      1.0000 0.26465  0.97876  0.86511  Biso   1.000  C
  O355      1.0000 0.24296  0.00045  0.79363  Biso   1.000  O
  C356      1.0000 0.26910  0.97431  0.84204  Biso   1.000  C
  H357      1.0000 0.27956  0.96385  0.83737  Biso   1.000  H
  O358      1.0000 0.27022  0.97319  0.93659  Biso   1.000  O
  C359      1.0000 0.24408  0.99933  0.88818  Biso   1.000  C
  H360      1.0000 0.23362  0.00979  0.89285  Biso   1.000  H
  O361      1.0000 0.20637  0.00045  0.75703  Biso   1.000  O
  C362      1.0000 0.19732  0.98682  0.74340  Biso   1.000  C
  C363      1.0000 0.17242  0.98682  0.74340  Biso   1.000  C
  S364      1.0000 0.15796  0.97431  0.73089  Biso   1.000  S
  C365      1.0000 0.13489  0.97876  0.73535  Biso   1.000  C
  O366      1.0000 0.06341  0.97319  0.72978  Biso   1.000  O
  C367      1.0000 0.07245  0.98682  0.74340  Biso   1.000  C
  C368      1.0000 0.09736  0.98682  0.74340  Biso   1.000  C
  S369      1.0000 0.11182  0.99933  0.75591  Biso   1.000  S
  C370      1.0000 0.13489  0.99487  0.75146  Biso   1.000  C
  C371      1.0000 0.15796  0.99933  0.75591  Biso   1.000  C
  H372      1.0000 0.16263  0.00979  0.76637  Biso   1.000  H
  C373      1.0000 0.11182  0.97431  0.73089  Biso   1.000  C
  H374      1.0000 0.10715  0.96385  0.72043  Biso   1.000  H
  H375      1.0000 0.23362  0.89285  0.72043  Biso   1.000  H
  H376      1.0000 0.27956  0.83737  0.76637  Biso   1.000  H
  O377      1.0000 0.24296  0.03704  0.75703  Biso   1.000  O
  H378      1.0000 0.91922  0.00979  0.72043  Biso   1.000  H
  H379      1.0000 0.23362  0.00979  0.83737  Biso   1.000  H
  H380      1.0000 0.27956  0.96385  0.89285  Biso   1.000  H
  H381      1.0000 0.35056  0.96385  0.76637  Biso   1.000  H
  C382      1.0000 0.25659  0.04609  0.74340  Biso   1.000  C
  C383      1.0000 0.25659  0.07099  0.74340  Biso   1.000  C
  S384      1.0000 0.24408  0.08545  0.75591  Biso   1.000  S
  C385      1.0000 0.24854  0.62170  0.75146  Biso   1.000  C
  C386      1.0000 0.26465  0.62170  0.73535  Biso   1.000  C
  C387      1.0000 0.26910  0.08545  0.73089  Biso   1.000  C
  H388      1.0000 0.27956  0.08078  0.72043  Biso   1.000  H
  C389      1.0000 0.25659  0.68414  0.74340  Biso   1.000  C
  C390      1.0000 0.25659  0.65924  0.74340  Biso   1.000  C
  S391      1.0000 0.26910  0.64477  0.73089  Biso   1.000  S
  O392      1.0000 0.27022  0.69318  0.72978  Biso   1.000  O
  C393      1.0000 0.24408  0.64477  0.75591  Biso   1.000  C
  H394      1.0000 0.23362  0.64945  0.76637  Biso   1.000  H
  Zn395      1.0000 0.27527  0.72473  0.72472  Biso   1.000  Zn
  H396      1.0000 0.91922  0.76638  0.96384  Biso   1.000  H
  C397      1.0000 0.25659  0.74341  0.04608  Biso   1.000  C
  C398      1.0000 0.25659  0.74341  0.07099  Biso   1.000  C
  S399      1.0000 0.26910  0.73090  0.08545  Biso   1.000  S
  C400      1.0000 0.26465  0.73535  0.62170  Biso   1.000  C
  C401      1.0000 0.24854  0.75147  0.62170  Biso   1.000  C
  C402      1.0000 0.24408  0.75592  0.08545  Biso   1.000  C
  H403      1.0000 0.23362  0.76638  0.08078  Biso   1.000  H
  H404      1.0000 0.35056  0.72044  0.00978  Biso   1.000  H
  H405      1.0000 0.27956  0.83737  0.96384  Biso   1.000  H
  H406      1.0000 0.23362  0.89285  0.00978  Biso   1.000  H
  O407      1.0000 0.27022  0.72978  0.69318  Biso   1.000  O
  C408      1.0000 0.25659  0.74341  0.68414  Biso   1.000  C
  C409      1.0000 0.25659  0.74341  0.65923  Biso   1.000  C
  S410      1.0000 0.24408  0.75592  0.64477  Biso   1.000  S
  O411      1.0000 0.24296  0.75704  0.69318  Biso   1.000  O
  C412      1.0000 0.26910  0.73090  0.64477  Biso   1.000  C
  H413      1.0000 0.27956  0.72044  0.64944  Biso   1.000  H
  H414      1.0000 0.99021  0.72044  0.08078  Biso   1.000  H
  H415      1.0000 0.03615  0.76638  0.64944  Biso   1.000  H
  C416      1.0000 0.95392  0.74341  0.74340  Biso   1.000  C
  C417      1.0000 0.92901  0.74341  0.74340  Biso   1.000  C
  S418      1.0000 0.91455  0.75592  0.75591  Biso   1.000  S
  C419      1.0000 0.89148  0.75147  0.75146  Biso   1.000  C
  C420      1.0000 0.89148  0.73535  0.73535  Biso   1.000  C
  C421      1.0000 0.91455  0.73090  0.73089  Biso   1.000  C
  H422      1.0000 0.91922  0.72044  0.72043  Biso   1.000  H
  H423      1.0000 0.99021  0.83737  0.76637  Biso   1.000  H
  H424      1.0000 0.03615  0.89285  0.72043  Biso   1.000  H
  C425      1.0000 0.31586  0.74341  0.74340  Biso   1.000  C
  C426      1.0000 0.34076  0.74341  0.74340  Biso   1.000  C
  S427      1.0000 0.35523  0.73090  0.73089  Biso   1.000  S
  O428      1.0000 0.30682  0.72978  0.72978  Biso   1.000  O
  C429      1.0000 0.35523  0.75592  0.75591  Biso   1.000  C
  H430      1.0000 0.35056  0.76638  0.76637  Biso   1.000  H
  H431      1.0000 0.23362  0.96385  0.08078  Biso   1.000  H
  H432      1.0000 0.27956  0.00979  0.64944  Biso   1.000  H
  H433      1.0000 0.16263  0.96385  0.72043  Biso   1.000  H
  H434      1.0000 0.10715  0.00979  0.76637  Biso   1.000  H
  H435      1.0000 0.23362  0.08078  0.76637  Biso   1.000  H
  H436      1.0000 0.27956  0.64945  0.72043  Biso   1.000  H
  H437      1.0000 0.27956  0.08078  0.00978  Biso   1.000  H
  H438      1.0000 0.27956  0.72044  0.08078  Biso   1.000  H
  H439      1.0000 0.16263  0.76638  0.00978  Biso   1.000  H
  H440      1.0000 0.10715  0.72044  0.96384  Biso   1.000  H
  H441      1.0000 0.23362  0.64944  0.96384  Biso   1.000  H
  H442      1.0000 0.23362  0.76638  0.64944  Biso   1.000  H
  H443      1.0000 0.03615  0.08078  0.76637  Biso   1.000  H
  H444      1.0000 0.03615  0.72044  0.83737  Biso   1.000  H
  H445      1.0000 0.99021  0.76638  0.89285  Biso   1.000  H
  H446      1.0000 0.91922  0.76638  0.76637  Biso   1.000  H
  H447      1.0000 0.99021  0.64945  0.72043  Biso   1.000  H
  H448      1.0000 0.35056  0.72044  0.72043  Biso   1.000  H
  C449      1.0000 0.01318  0.98682  0.04608  Biso   1.000  C
  C450      1.0000 0.01318  0.98682  0.07099  Biso   1.000  C
  S451      1.0000 0.02569  0.97431  0.08545  Biso   1.000  S
  C452      1.0000 0.02124  0.97876  0.62170  Biso   1.000  C
  C453      1.0000 0.00513  0.99487  0.62170  Biso   1.000  C
  C454      1.0000 0.00067  0.99933  0.08545  Biso   1.000  C
  H455      1.0000 0.99021  0.00979  0.08078  Biso   1.000  H
  H456      1.0000 0.10715  0.96385  0.00978  Biso   1.000  H
  H457      1.0000 0.16263  0.00979  0.96384  Biso   1.000  H
  H458      1.0000 0.03615  0.08078  0.96384  Biso   1.000  H
  O459      1.0000 0.02681  0.97319  0.69318  Biso   1.000  O
  C460      1.0000 0.01318  0.98682  0.68414  Biso   1.000  C
  C461      1.0000 0.01318  0.98682  0.65923  Biso   1.000  C
  S462      1.0000 0.00067  0.99933  0.64477  Biso   1.000  S
  O463      1.0000 0.99956  0.00045  0.69318  Biso   1.000  O
  C464      1.0000 0.02569  0.97431  0.64477  Biso   1.000  C
  H465      1.0000 0.03615  0.96385  0.64944  Biso   1.000  H
  H466      1.0000 0.99021  0.64945  0.00978  Biso   1.000  H
  H467      1.0000 0.03615  0.96385  0.08078  Biso   1.000  H
  H468      1.0000 0.91922  0.00979  0.00978  Biso   1.000  H
  H469      1.0000 0.99021  0.89285  0.96384  Biso   1.000  H
  H470      1.0000 0.03615  0.83737  0.00978  Biso   1.000  H
  H471      1.0000 0.35056  0.96385  0.96384  Biso   1.000  H
  Zn472      1.0000 0.48132  0.96814  0.96813  Biso   1.000  Zn
  O473      1.0000 0.50000  0.98682  0.98681  Biso   1.000  O
  O474      1.0000 0.48637  0.97319  0.93659  Biso   1.000  O
  C475      1.0000 0.50000  0.98682  0.92755  Biso   1.000  C
  C476      1.0000 0.50000  0.98682  0.90264  Biso   1.000  C
  S477      1.0000 0.51251  0.99933  0.88818  Biso   1.000  S
  C478      1.0000 0.50806  0.99487  0.86511  Biso   1.000  C
  O479      1.0000 0.51363  0.00045  0.79363  Biso   1.000  O
  C480      1.0000 0.50000  0.98682  0.80267  Biso   1.000  C
  C481      1.0000 0.50000  0.98682  0.82758  Biso   1.000  C
  S482      1.0000 0.48749  0.97431  0.84204  Biso   1.000  S
  C483      1.0000 0.49194  0.97876  0.86511  Biso   1.000  C
  O484      1.0000 0.51363  0.00045  0.93659  Biso   1.000  O
  C485      1.0000 0.48749  0.97431  0.88818  Biso   1.000  C
  H486      1.0000 0.47703  0.96385  0.89285  Biso   1.000  H
  O487      1.0000 0.48637  0.97319  0.79363  Biso   1.000  O
  C488      1.0000 0.51251  0.99933  0.84204  Biso   1.000  C
  H489      1.0000 0.52297  0.00979  0.83737  Biso   1.000  H
  Zn490      1.0000 0.51868  0.00550  0.96813  Biso   1.000  Zn
  O491      1.0000 0.55023  0.00045  0.97318  Biso   1.000  O
  C492      1.0000 0.55927  0.98682  0.98681  Biso   1.000  C
  C493      1.0000 0.58417  0.98682  0.98681  Biso   1.000  C
  S494      1.0000 0.59864  0.97431  0.99932  Biso   1.000  S
  C495      1.0000 0.62171  0.97876  0.99487  Biso   1.000  C
  O496      1.0000 0.69318  0.97319  0.00044  Biso   1.000  O
  C497      1.0000 0.68414  0.98682  0.98681  Biso   1.000  C
  C498      1.0000 0.65924  0.98682  0.98681  Biso   1.000  C
  S499      1.0000 0.64478  0.99933  0.97430  Biso   1.000  S
  C500      1.0000 0.62171  0.99487  0.97876  Biso   1.000  C
  O501      1.0000 0.55023  0.97319  0.00044  Biso   1.000  O
  C502      1.0000 0.59864  0.99933  0.97430  Biso   1.000  C
  H503      1.0000 0.59397  0.00979  0.96384  Biso   1.000  H
  O504      1.0000 0.69318  0.00045  0.97318  Biso   1.000  O
  C505      1.0000 0.64478  0.97431  0.99932  Biso   1.000  C
  H506      1.0000 0.64945  0.96385  0.00978  Biso   1.000  H
  Zn507      1.0000 0.51868  0.96814  0.00550  Biso   1.000  Zn
  O508      1.0000 0.51363  0.93659  0.00044  Biso   1.000  O
  C509      1.0000 0.50000  0.92755  0.98681  Biso   1.000  C
  C510      1.0000 0.50000  0.90265  0.98681  Biso   1.000  C
  S511      1.0000 0.48749  0.88818  0.97430  Biso   1.000  S
  C512      1.0000 0.49194  0.86511  0.97876  Biso   1.000  C
  O513      1.0000 0.48637  0.79364  0.97318  Biso   1.000  O
  C514      1.0000 0.50000  0.80268  0.98681  Biso   1.000  C
  C515      1.0000 0.50000  0.82758  0.98681  Biso   1.000  C
  S516      1.0000 0.51251  0.84204  0.99932  Biso   1.000  S
  C517      1.0000 0.50806  0.86511  0.99487  Biso   1.000  C
  O518      1.0000 0.48637  0.93659  0.97318  Biso   1.000  O
  C519      1.0000 0.51251  0.88818  0.99932  Biso   1.000  C
  H520      1.0000 0.52297  0.89285  0.00978  Biso   1.000  H
  O521      1.0000 0.51363  0.79364  0.00044  Biso   1.000  O
  C522      1.0000 0.48749  0.84204  0.97430  Biso   1.000  C
  H523      1.0000 0.47703  0.83737  0.96384  Biso   1.000  H
  Zn524      1.0000 0.48132  0.96814  0.76209  Biso   1.000  Zn
  Zn525      1.0000 0.48132  0.76209  0.96813  Biso   1.000  Zn
  Zn526      1.0000 0.72473  0.96814  0.00550  Biso   1.000  Zn
  Zn527      1.0000 0.51868  0.76209  0.00550  Biso   1.000  Zn
  Zn528      1.0000 0.72473  0.00550  0.96813  Biso   1.000  Zn
  Zn529      1.0000 0.51868  0.00550  0.76209  Biso   1.000  Zn
  Zn530      1.0000 0.48132  0.00550  0.00550  Biso   1.000  Zn
  O531      1.0000 0.50000  0.98682  0.74340  Biso   1.000  O
  O532      1.0000 0.48637  0.93659  0.75703  Biso   1.000  O
  O533      1.0000 0.51363  0.97319  0.03704  Biso   1.000  O
  O534      1.0000 0.44977  0.97319  0.75703  Biso   1.000  O
  O535      1.0000 0.44977  0.97319  0.97318  Biso   1.000  O
  O536      1.0000 0.51363  0.03704  0.97318  Biso   1.000  O
  C537      1.0000 0.75147  0.99487  0.62170  Biso   1.000  C
  O538      1.0000 0.75704  0.00045  0.03704  Biso   1.000  O
  C539      1.0000 0.74341  0.98682  0.04608  Biso   1.000  C
  C540      1.0000 0.74341  0.98682  0.07099  Biso   1.000  C
  S541      1.0000 0.73090  0.97431  0.08545  Biso   1.000  S
  C542      1.0000 0.73535  0.97876  0.62170  Biso   1.000  C
  O543      1.0000 0.72978  0.97319  0.03704  Biso   1.000  O
  C544      1.0000 0.75592  0.99933  0.08545  Biso   1.000  C
  H545      1.0000 0.76638  0.00979  0.08078  Biso   1.000  H
  Zn546      1.0000 0.76209  0.00550  0.00550  Biso   1.000  Zn
  O547      1.0000 0.74341  0.98682  0.98681  Biso   1.000  O
  O548      1.0000 0.72978  0.93659  0.00044  Biso   1.000  O
  C549      1.0000 0.37830  0.97876  0.75146  Biso   1.000  C
  C550      1.0000 0.44073  0.98682  0.74340  Biso   1.000  C
  C551      1.0000 0.41583  0.98682  0.74340  Biso   1.000  C
  S552      1.0000 0.40137  0.99933  0.73089  Biso   1.000  S
  C553      1.0000 0.37830  0.99487  0.73535  Biso   1.000  C
  O554      1.0000 0.44977  0.00045  0.72978  Biso   1.000  O
  C555      1.0000 0.40137  0.97431  0.75591  Biso   1.000  C
  H556      1.0000 0.40604  0.96385  0.76637  Biso   1.000  H
  Zn557      1.0000 0.48132  0.00550  0.72472  Biso   1.000  Zn
  Zn558      1.0000 0.72473  0.96814  0.72472  Biso   1.000  Zn
  O559      1.0000 0.74341  0.98682  0.74340  Biso   1.000  O
  O560      1.0000 0.72978  0.97319  0.69318  Biso   1.000  O
  C561      1.0000 0.74341  0.98682  0.68414  Biso   1.000  C
  C562      1.0000 0.74341  0.98682  0.65923  Biso   1.000  C
  S563      1.0000 0.75592  0.99933  0.64477  Biso   1.000  S
  O564      1.0000 0.75704  0.00045  0.69318  Biso   1.000  O
  C565      1.0000 0.73090  0.97431  0.64477  Biso   1.000  C
  H566      1.0000 0.72044  0.96385  0.64944  Biso   1.000  H
  Zn567      1.0000 0.76209  0.00550  0.72472  Biso   1.000  Zn
  O568      1.0000 0.79364  0.00045  0.72978  Biso   1.000  O
  C569      1.0000 0.80268  0.98682  0.74340  Biso   1.000  C
  C570      1.0000 0.82758  0.98682  0.74340  Biso   1.000  C
  S571      1.0000 0.84204  0.97431  0.75591  Biso   1.000  S
  O572      1.0000 0.79364  0.97319  0.75703  Biso   1.000  O
  C573      1.0000 0.84204  0.99933  0.73089  Biso   1.000  C
  H574      1.0000 0.83737  0.00979  0.72043  Biso   1.000  H
  Zn575      1.0000 0.76209  0.96814  0.76209  Biso   1.000  Zn
  O576      1.0000 0.75704  0.93659  0.75703  Biso   1.000  O
  C577      1.0000 0.74341  0.92755  0.74340  Biso   1.000  C
  C578      1.0000 0.74341  0.90265  0.74340  Biso   1.000  C
  S579      1.0000 0.73090  0.88818  0.73089  Biso   1.000  S
  C580      1.0000 0.73535  0.86511  0.73535  Biso   1.000  C
  O581      1.0000 0.72978  0.79364  0.72978  Biso   1.000  O
  C582      1.0000 0.74341  0.80268  0.74340  Biso   1.000  C
  C583      1.0000 0.74341  0.82758  0.74340  Biso   1.000  C
  S584      1.0000 0.75592  0.84204  0.75591  Biso   1.000  S
  C585      1.0000 0.75147  0.86511  0.75146  Biso   1.000  C
  O586      1.0000 0.72978  0.93659  0.72978  Biso   1.000  O
  C587      1.0000 0.75592  0.88818  0.75591  Biso   1.000  C
  H588      1.0000 0.76638  0.89285  0.76637  Biso   1.000  H
  O589      1.0000 0.75704  0.79364  0.75703  Biso   1.000  O
  C590      1.0000 0.73090  0.84204  0.73089  Biso   1.000  C
  H591      1.0000 0.72044  0.83737  0.72043  Biso   1.000  H
  Zn592      1.0000 0.72473  0.76209  0.72472  Biso   1.000  Zn
  Zn593      1.0000 0.76209  0.76209  0.76209  Biso   1.000  Zn
  Zn594      1.0000 0.72473  0.00550  0.76209  Biso   1.000  Zn
  O595      1.0000 0.75704  0.97319  0.79363  Biso   1.000  O
  O596      1.0000 0.69318  0.97319  0.72978  Biso   1.000  O
  O597      1.0000 0.75704  0.03704  0.72978  Biso   1.000  O
  C598      1.0000 0.73535  0.62170  0.97876  Biso   1.000  C
  O599      1.0000 0.72978  0.03704  0.97318  Biso   1.000  O
  C600      1.0000 0.74341  0.04609  0.98681  Biso   1.000  C
  C601      1.0000 0.74341  0.07099  0.98681  Biso   1.000  C
  S602      1.0000 0.75592  0.08545  0.99932  Biso   1.000  S
  C603      1.0000 0.75147  0.62170  0.99487  Biso   1.000  C
  O604      1.0000 0.75704  0.03704  0.00044  Biso   1.000  O
  C605      1.0000 0.73090  0.08545  0.97430  Biso   1.000  C
  H606      1.0000 0.72044  0.08078  0.96384  Biso   1.000  H
  C607      1.0000 0.37830  0.73535  0.99487  Biso   1.000  C
  O608      1.0000 0.44977  0.72978  0.00044  Biso   1.000  O
  C609      1.0000 0.44073  0.74341  0.98681  Biso   1.000  C
  C610      1.0000 0.41583  0.74341  0.98681  Biso   1.000  C
  S611      1.0000 0.40137  0.75592  0.97430  Biso   1.000  S
  C612      1.0000 0.37830  0.75147  0.97876  Biso   1.000  C
  O613      1.0000 0.44977  0.75704  0.97318  Biso   1.000  O
  C614      1.0000 0.40137  0.73090  0.99932  Biso   1.000  C
  H615      1.0000 0.40604  0.72044  0.00978  Biso   1.000  H
  Zn616      1.0000 0.48132  0.72473  0.00550  Biso   1.000  Zn
  Zn617      1.0000 0.72473  0.72473  0.96813  Biso   1.000  Zn
  O618      1.0000 0.74341  0.74341  0.98681  Biso   1.000  O
  O619      1.0000 0.72978  0.72978  0.93659  Biso   1.000  O
  C620      1.0000 0.74341  0.74341  0.92755  Biso   1.000  C
  C621      1.0000 0.74341  0.74341  0.90264  Biso   1.000  C
  S622      1.0000 0.75592  0.75592  0.88818  Biso   1.000  S
  C623      1.0000 0.75147  0.75147  0.86511  Biso   1.000  C
  O624      1.0000 0.75704  0.75704  0.79363  Biso   1.000  O
  C625      1.0000 0.74341  0.74341  0.80267  Biso   1.000  C
  C626      1.0000 0.74341  0.74341  0.82758  Biso   1.000  C
  S627      1.0000 0.73090  0.73090  0.84204  Biso   1.000  S
  C628      1.0000 0.73535  0.73535  0.86511  Biso   1.000  C
  O629      1.0000 0.75704  0.75704  0.93659  Biso   1.000  O
  C630      1.0000 0.73090  0.73090  0.88818  Biso   1.000  C
  H631      1.0000 0.72044  0.72044  0.89285  Biso   1.000  H
  O632      1.0000 0.72978  0.72978  0.79363  Biso   1.000  O
  C633      1.0000 0.75592  0.75592  0.84204  Biso   1.000  C
  H634      1.0000 0.76638  0.76638  0.83737  Biso   1.000  H
  Zn635      1.0000 0.76209  0.76209  0.96813  Biso   1.000  Zn
  O636      1.0000 0.79364  0.75704  0.97318  Biso   1.000  O
  C637      1.0000 0.80268  0.74341  0.98681  Biso   1.000  C
  C638      1.0000 0.82758  0.74341  0.98681  Biso   1.000  C
  S639      1.0000 0.84204  0.73090  0.99932  Biso   1.000  S
  O640      1.0000 0.79364  0.72978  0.00044  Biso   1.000  O
  C641      1.0000 0.84204  0.75592  0.97430  Biso   1.000  C
  H642      1.0000 0.83737  0.76638  0.96384  Biso   1.000  H
  Zn643      1.0000 0.76209  0.72473  0.00550  Biso   1.000  Zn
  O644      1.0000 0.75704  0.69318  0.00044  Biso   1.000  O
  C645      1.0000 0.74341  0.68414  0.98681  Biso   1.000  C
  C646      1.0000 0.74341  0.65924  0.98681  Biso   1.000  C
  S647      1.0000 0.73090  0.64477  0.97430  Biso   1.000  S
  O648      1.0000 0.72978  0.69318  0.97318  Biso   1.000  O
  C649      1.0000 0.75592  0.64477  0.99932  Biso   1.000  C
  H650      1.0000 0.76638  0.64944  0.00978  Biso   1.000  H
  Zn651      1.0000 0.72473  0.72473  0.76209  Biso   1.000  Zn
  Zn652      1.0000 0.72473  0.76209  0.00550  Biso   1.000  Zn
  O653      1.0000 0.74341  0.74341  0.74340  Biso   1.000  O
  O654      1.0000 0.72978  0.69318  0.75703  Biso   1.000  O
  O655      1.0000 0.75704  0.72978  0.03704  Biso   1.000  O
  O656      1.0000 0.69318  0.72978  0.75703  Biso   1.000  O
  O657      1.0000 0.69318  0.72978  0.97318  Biso   1.000  O
  O658      1.0000 0.75704  0.79364  0.97318  Biso   1.000  O
  C659      1.0000 0.49194  0.62170  0.73535  Biso   1.000  C
  O660      1.0000 0.48637  0.03704  0.72978  Biso   1.000  O
  C661      1.0000 0.50000  0.04609  0.74340  Biso   1.000  C
  C662      1.0000 0.50000  0.07099  0.74340  Biso   1.000  C
  S663      1.0000 0.51251  0.08545  0.75591  Biso   1.000  S
  C664      1.0000 0.50806  0.62170  0.75146  Biso   1.000  C
  O665      1.0000 0.51363  0.03704  0.75703  Biso   1.000  O
  C666      1.0000 0.48749  0.08545  0.73089  Biso   1.000  C
  H667      1.0000 0.47703  0.08078  0.72043  Biso   1.000  H
  C668      1.0000 0.50806  0.75147  0.62170  Biso   1.000  C
  O669      1.0000 0.51363  0.75704  0.03704  Biso   1.000  O
  C670      1.0000 0.50000  0.74341  0.04608  Biso   1.000  C
  C671      1.0000 0.50000  0.74341  0.07099  Biso   1.000  C
  S672      1.0000 0.48749  0.73090  0.08545  Biso   1.000  S
  C673      1.0000 0.49194  0.73535  0.62170  Biso   1.000  C
  O674      1.0000 0.48637  0.72978  0.03704  Biso   1.000  O
  C675      1.0000 0.51251  0.75592  0.08545  Biso   1.000  C
  H676      1.0000 0.52297  0.76638  0.08078  Biso   1.000  H
  O677      1.0000 0.50000  0.74341  0.98681  Biso   1.000  O
  O678      1.0000 0.48637  0.69318  0.00044  Biso   1.000  O
  Zn679      1.0000 0.48132  0.72473  0.72472  Biso   1.000  Zn
  O680      1.0000 0.50000  0.74341  0.74340  Biso   1.000  O
  O681      1.0000 0.48637  0.72978  0.69318  Biso   1.000  O
  C682      1.0000 0.50000  0.74341  0.68414  Biso   1.000  C
  C683      1.0000 0.50000  0.74341  0.65923  Biso   1.000  C
  S684      1.0000 0.51251  0.75592  0.64477  Biso   1.000  S
  O685      1.0000 0.51363  0.75704  0.69318  Biso   1.000  O
  C686      1.0000 0.48749  0.73090  0.64477  Biso   1.000  C
  H687      1.0000 0.47703  0.72044  0.64944  Biso   1.000  H
  Zn688      1.0000 0.51868  0.76209  0.72472  Biso   1.000  Zn
  O689      1.0000 0.55023  0.75704  0.72978  Biso   1.000  O
  C690      1.0000 0.55927  0.74341  0.74340  Biso   1.000  C
  C691      1.0000 0.58417  0.74341  0.74340  Biso   1.000  C
  S692      1.0000 0.59864  0.73090  0.75591  Biso   1.000  S
  C693      1.0000 0.62171  0.73535  0.75146  Biso   1.000  C
  C694      1.0000 0.68414  0.74341  0.74340  Biso   1.000  C
  C695      1.0000 0.65924  0.74341  0.74340  Biso   1.000  C
  S696      1.0000 0.64478  0.75592  0.73089  Biso   1.000  S
  C697      1.0000 0.62171  0.75147  0.73535  Biso   1.000  C
  O698      1.0000 0.55023  0.72978  0.75703  Biso   1.000  O
  C699      1.0000 0.59864  0.75592  0.73089  Biso   1.000  C
  H700      1.0000 0.59396  0.76638  0.72043  Biso   1.000  H
  O701      1.0000 0.69318  0.75704  0.72978  Biso   1.000  O
  C702      1.0000 0.64478  0.73090  0.75591  Biso   1.000  C
  H703      1.0000 0.64945  0.72044  0.76637  Biso   1.000  H
  Zn704      1.0000 0.51868  0.72473  0.76209  Biso   1.000  Zn
  O705      1.0000 0.51363  0.69318  0.75703  Biso   1.000  O
  C706      1.0000 0.50000  0.68414  0.74340  Biso   1.000  C
  C707      1.0000 0.50000  0.65924  0.74340  Biso   1.000  C
  S708      1.0000 0.48749  0.64477  0.73089  Biso   1.000  S
  O709      1.0000 0.48637  0.69318  0.72978  Biso   1.000  O
  C710      1.0000 0.51251  0.64477  0.75591  Biso   1.000  C
  H711      1.0000 0.52297  0.64944  0.76637  Biso   1.000  H
  Zn712      1.0000 0.48132  0.76209  0.76209  Biso   1.000  Zn
  O713      1.0000 0.51363  0.72978  0.79363  Biso   1.000  O
  O714      1.0000 0.44977  0.72978  0.72978  Biso   1.000  O
  O715      1.0000 0.51363  0.79364  0.72978  Biso   1.000  O
  H716      1.0000 0.76638  0.76638  0.89285  Biso   1.000  H
  H717      1.0000 0.72044  0.72044  0.83737  Biso   1.000  H
  C718      1.0000 0.68414  0.74341  0.98681  Biso   1.000  C
  C719      1.0000 0.65924  0.74341  0.98681  Biso   1.000  C
  S720      1.0000 0.64478  0.75592  0.99932  Biso   1.000  S
  C721      1.0000 0.62171  0.75147  0.99487  Biso   1.000  C
  O722      1.0000 0.55023  0.75704  0.00044  Biso   1.000  O
  C723      1.0000 0.55927  0.74341  0.98681  Biso   1.000  C
  C724      1.0000 0.58417  0.74341  0.98681  Biso   1.000  C
  S725      1.0000 0.59864  0.73090  0.97430  Biso   1.000  S
  C726      1.0000 0.62171  0.73535  0.97876  Biso   1.000  C
  O727      1.0000 0.69318  0.75704  0.00044  Biso   1.000  O
  C728      1.0000 0.64478  0.73090  0.97430  Biso   1.000  C
  H729      1.0000 0.64945  0.72044  0.96384  Biso   1.000  H
  O730      1.0000 0.55023  0.72978  0.97318  Biso   1.000  O
  C731      1.0000 0.59864  0.75592  0.99932  Biso   1.000  C
  H732      1.0000 0.59396  0.76638  0.00978  Biso   1.000  H
  O733      1.0000 0.72978  0.79364  0.00044  Biso   1.000  O
  C734      1.0000 0.74341  0.80268  0.98681  Biso   1.000  C
  C735      1.0000 0.74341  0.82758  0.98681  Biso   1.000  C
  S736      1.0000 0.75592  0.84204  0.97430  Biso   1.000  S
  C737      1.0000 0.75147  0.86511  0.97876  Biso   1.000  C
  O738      1.0000 0.75704  0.93659  0.97318  Biso   1.000  O
  C739      1.0000 0.74341  0.92755  0.98681  Biso   1.000  C
  C740      1.0000 0.74341  0.90265  0.98681  Biso   1.000  C
  S741      1.0000 0.73090  0.88818  0.99932  Biso   1.000  S
  C742      1.0000 0.73535  0.86511  0.99487  Biso   1.000  C
  C743      1.0000 0.73090  0.84204  0.99932  Biso   1.000  C
  H744      1.0000 0.72044  0.83737  0.00978  Biso   1.000  H
  C745      1.0000 0.75592  0.88818  0.97430  Biso   1.000  C
  H746      1.0000 0.76638  0.89285  0.96384  Biso   1.000  H
  Zn747      1.0000 0.76209  0.96814  0.96813  Biso   1.000  Zn
  Zn748      1.0000 0.51868  0.72473  0.96813  Biso   1.000  Zn
  O749      1.0000 0.72978  0.75704  0.03704  Biso   1.000  O
  O750      1.0000 0.79364  0.75704  0.75703  Biso   1.000  O
  O751      1.0000 0.48637  0.75704  0.79363  Biso   1.000  O
  C752      1.0000 0.50000  0.74341  0.80267  Biso   1.000  C
  C753      1.0000 0.50000  0.74341  0.82758  Biso   1.000  C
  S754      1.0000 0.51251  0.73090  0.84204  Biso   1.000  S
  C755      1.0000 0.50806  0.73535  0.86511  Biso   1.000  C
  O756      1.0000 0.51363  0.72978  0.93659  Biso   1.000  O
  C757      1.0000 0.50000  0.74341  0.92755  Biso   1.000  C
  C758      1.0000 0.50000  0.74341  0.90264  Biso   1.000  C
  S759      1.0000 0.48749  0.75592  0.88818  Biso   1.000  S
  C760      1.0000 0.49194  0.75147  0.86511  Biso   1.000  C
  C761      1.0000 0.48749  0.75592  0.84204  Biso   1.000  C
  H762      1.0000 0.47703  0.76638  0.83737  Biso   1.000  H
  O763      1.0000 0.48637  0.75704  0.93659  Biso   1.000  O
  C764      1.0000 0.51251  0.73090  0.88818  Biso   1.000  C
  H765      1.0000 0.52297  0.72044  0.89285  Biso   1.000  H
  H766      1.0000 0.59396  0.72044  0.76637  Biso   1.000  H
  H767      1.0000 0.64945  0.76638  0.72043  Biso   1.000  H
  C768      1.0000 0.50000  0.80268  0.74340  Biso   1.000  C
  C769      1.0000 0.50000  0.82758  0.74340  Biso   1.000  C
  S770      1.0000 0.48749  0.84204  0.75591  Biso   1.000  S
  C771      1.0000 0.49194  0.86511  0.75146  Biso   1.000  C
  C772      1.0000 0.50000  0.92755  0.74340  Biso   1.000  C
  C773      1.0000 0.50000  0.90265  0.74340  Biso   1.000  C
  S774      1.0000 0.51251  0.88818  0.73089  Biso   1.000  S
  C775      1.0000 0.50806  0.86511  0.73535  Biso   1.000  C
  O776      1.0000 0.48637  0.79364  0.75703  Biso   1.000  O
  C777      1.0000 0.51251  0.84204  0.73089  Biso   1.000  C
  H778      1.0000 0.52297  0.83737  0.72043  Biso   1.000  H
  O779      1.0000 0.51363  0.93659  0.72978  Biso   1.000  O
  C780      1.0000 0.48749  0.88818  0.75591  Biso   1.000  C
  H781      1.0000 0.47703  0.89285  0.76637  Biso   1.000  H
  Zn782      1.0000 0.51868  0.96814  0.72472  Biso   1.000  Zn
  O783      1.0000 0.44977  0.75704  0.75703  Biso   1.000  O
  H784      1.0000 0.52297  0.00979  0.89285  Biso   1.000  H
  H785      1.0000 0.47703  0.96385  0.83737  Biso   1.000  H
  C786      1.0000 0.44073  0.98682  0.98681  Biso   1.000  C
  C787      1.0000 0.41583  0.98682  0.98681  Biso   1.000  C
  S788      1.0000 0.40137  0.99933  0.99932  Biso   1.000  S
  C789      1.0000 0.37830  0.99487  0.99487  Biso   1.000  C
  C790      1.0000 0.37830  0.97876  0.97876  Biso   1.000  C
  O791      1.0000 0.44977  0.00045  0.00044  Biso   1.000  O
  C792      1.0000 0.40137  0.97431  0.97430  Biso   1.000  C
  H793      1.0000 0.40604  0.96385  0.96384  Biso   1.000  H
  O794      1.0000 0.48637  0.03704  0.00044  Biso   1.000  O
  C795      1.0000 0.50000  0.04609  0.98681  Biso   1.000  C
  C796      1.0000 0.50000  0.07099  0.98681  Biso   1.000  C
  S797      1.0000 0.51251  0.08545  0.97430  Biso   1.000  S
  C798      1.0000 0.50806  0.62170  0.97876  Biso   1.000  C
  C799      1.0000 0.49194  0.62170  0.99487  Biso   1.000  C
  C800      1.0000 0.48749  0.08545  0.99932  Biso   1.000  C
  H801      1.0000 0.47703  0.08078  0.00978  Biso   1.000  H
  O802      1.0000 0.48637  0.00045  0.03704  Biso   1.000  O
  O803      1.0000 0.55023  0.00045  0.75703  Biso   1.000  O
  O804      1.0000 0.79364  0.00045  0.00044  Biso   1.000  O
  C805      1.0000 0.80268  0.98682  0.98681  Biso   1.000  C
  C806      1.0000 0.82758  0.98682  0.98681  Biso   1.000  C
  S807      1.0000 0.84204  0.97431  0.97430  Biso   1.000  S
  O808      1.0000 0.79364  0.97319  0.97318  Biso   1.000  O
  C809      1.0000 0.84204  0.99933  0.99932  Biso   1.000  C
  H810      1.0000 0.83737  0.00979  0.00978  Biso   1.000  H
  O811      1.0000 0.51363  0.69318  0.97318  Biso   1.000  O
  C812      1.0000 0.50000  0.68414  0.98681  Biso   1.000  C
  C813      1.0000 0.50000  0.65924  0.98681  Biso   1.000  C
  S814      1.0000 0.48749  0.64477  0.99932  Biso   1.000  S
  C815      1.0000 0.51251  0.64477  0.97430  Biso   1.000  C
  H816      1.0000 0.52297  0.64944  0.96384  Biso   1.000  H
  C817      1.0000 0.74341  0.98682  0.80267  Biso   1.000  C
  C818      1.0000 0.74341  0.98682  0.82758  Biso   1.000  C
  S819      1.0000 0.73090  0.99933  0.84204  Biso   1.000  S
  C820      1.0000 0.73535  0.99487  0.86511  Biso   1.000  C
  O821      1.0000 0.72978  0.00045  0.93659  Biso   1.000  O
  C822      1.0000 0.74341  0.98682  0.92755  Biso   1.000  C
  C823      1.0000 0.74341  0.98682  0.90264  Biso   1.000  C
  S824      1.0000 0.75592  0.97431  0.88818  Biso   1.000  S
  C825      1.0000 0.75147  0.97876  0.86511  Biso   1.000  C
  O826      1.0000 0.72978  0.00045  0.79363  Biso   1.000  O
  C827      1.0000 0.75592  0.97431  0.84204  Biso   1.000  C
  H828      1.0000 0.76638  0.96385  0.83737  Biso   1.000  H
  O829      1.0000 0.75704  0.97319  0.93659  Biso   1.000  O
  C830      1.0000 0.73090  0.99933  0.88818  Biso   1.000  C
  H831      1.0000 0.72044  0.00979  0.89285  Biso   1.000  H
  O832      1.0000 0.69318  0.00045  0.75703  Biso   1.000  O
  C833      1.0000 0.68414  0.98682  0.74340  Biso   1.000  C
  C834      1.0000 0.65924  0.98682  0.74340  Biso   1.000  C
  S835      1.0000 0.64478  0.97431  0.73089  Biso   1.000  S
  C836      1.0000 0.62171  0.97876  0.73535  Biso   1.000  C
  O837      1.0000 0.55023  0.97319  0.72978  Biso   1.000  O
  C838      1.0000 0.55927  0.98682  0.74340  Biso   1.000  C
  C839      1.0000 0.58417  0.98682  0.74340  Biso   1.000  C
  S840      1.0000 0.59864  0.99933  0.75591  Biso   1.000  S
  C841      1.0000 0.62171  0.99487  0.75146  Biso   1.000  C
  C842      1.0000 0.64478  0.99933  0.75591  Biso   1.000  C
  H843      1.0000 0.64945  0.00979  0.76637  Biso   1.000  H
  C844      1.0000 0.59864  0.97431  0.73089  Biso   1.000  C
  H845      1.0000 0.59397  0.96385  0.72043  Biso   1.000  H
  H846      1.0000 0.72044  0.89285  0.72043  Biso   1.000  H
  H847      1.0000 0.76638  0.83737  0.76637  Biso   1.000  H
  O848      1.0000 0.72978  0.03704  0.75703  Biso   1.000  O
  H849      1.0000 0.40604  0.00979  0.72043  Biso   1.000  H
  H850      1.0000 0.72044  0.00979  0.83737  Biso   1.000  H
  H851      1.0000 0.76638  0.96385  0.89285  Biso   1.000  H
  H852      1.0000 0.83737  0.96385  0.76637  Biso   1.000  H
  C853      1.0000 0.74341  0.04609  0.74340  Biso   1.000  C
  C854      1.0000 0.74341  0.07099  0.74340  Biso   1.000  C
  S855      1.0000 0.73090  0.08545  0.75591  Biso   1.000  S
  C856      1.0000 0.73535  0.62170  0.75146  Biso   1.000  C
  C857      1.0000 0.75147  0.62170  0.73535  Biso   1.000  C
  C858      1.0000 0.75592  0.08545  0.73089  Biso   1.000  C
  H859      1.0000 0.76638  0.08078  0.72043  Biso   1.000  H
  C860      1.0000 0.74341  0.68414  0.74340  Biso   1.000  C
  C861      1.0000 0.74341  0.65924  0.74340  Biso   1.000  C
  S862      1.0000 0.75592  0.64477  0.73089  Biso   1.000  S
  O863      1.0000 0.75704  0.69318  0.72978  Biso   1.000  O
  C864      1.0000 0.73090  0.64477  0.75591  Biso   1.000  C
  H865      1.0000 0.72044  0.64944  0.76637  Biso   1.000  H
  Zn866      1.0000 0.76209  0.72473  0.72472  Biso   1.000  Zn
  H867      1.0000 0.40604  0.76638  0.96384  Biso   1.000  H
  C868      1.0000 0.74341  0.74341  0.04608  Biso   1.000  C
  C869      1.0000 0.74341  0.74341  0.07099  Biso   1.000  C
  S870      1.0000 0.75592  0.73090  0.08545  Biso   1.000  S
  C871      1.0000 0.75147  0.73535  0.62170  Biso   1.000  C
  C872      1.0000 0.73535  0.75147  0.62170  Biso   1.000  C
  C873      1.0000 0.73090  0.75592  0.08545  Biso   1.000  C
  H874      1.0000 0.72044  0.76638  0.08078  Biso   1.000  H
  H875      1.0000 0.83737  0.72044  0.00978  Biso   1.000  H
  H876      1.0000 0.76638  0.83737  0.96384  Biso   1.000  H
  H877      1.0000 0.72044  0.89285  0.00978  Biso   1.000  H
  O878      1.0000 0.75704  0.72978  0.69318  Biso   1.000  O
  C879      1.0000 0.74341  0.74341  0.68414  Biso   1.000  C
  C880      1.0000 0.74341  0.74341  0.65923  Biso   1.000  C
  S881      1.0000 0.73090  0.75592  0.64477  Biso   1.000  S
  O882      1.0000 0.72978  0.75704  0.69318  Biso   1.000  O
  C883      1.0000 0.75592  0.73090  0.64477  Biso   1.000  C
  H884      1.0000 0.76638  0.72044  0.64944  Biso   1.000  H
  H885      1.0000 0.47703  0.72044  0.08078  Biso   1.000  H
  H886      1.0000 0.52297  0.76638  0.64944  Biso   1.000  H
  C887      1.0000 0.44073  0.74341  0.74340  Biso   1.000  C
  C888      1.0000 0.41583  0.74341  0.74340  Biso   1.000  C
  S889      1.0000 0.40137  0.75592  0.75591  Biso   1.000  S
  C890      1.0000 0.37830  0.75147  0.75146  Biso   1.000  C
  C891      1.0000 0.37830  0.73535  0.73535  Biso   1.000  C
  C892      1.0000 0.40137  0.73090  0.73089  Biso   1.000  C
  H893      1.0000 0.40604  0.72044  0.72043  Biso   1.000  H
  H894      1.0000 0.47703  0.83737  0.76637  Biso   1.000  H
  H895      1.0000 0.52297  0.89285  0.72043  Biso   1.000  H
  C896      1.0000 0.80268  0.74341  0.74340  Biso   1.000  C
  C897      1.0000 0.82758  0.74341  0.74340  Biso   1.000  C
  S898      1.0000 0.84204  0.73090  0.73089  Biso   1.000  S
  O899      1.0000 0.79364  0.72978  0.72978  Biso   1.000  O
  C900      1.0000 0.84204  0.75592  0.75591  Biso   1.000  C
  H901      1.0000 0.83737  0.76638  0.76637  Biso   1.000  H
  H902      1.0000 0.72044  0.96385  0.08078  Biso   1.000  H
  H903      1.0000 0.76638  0.00979  0.64944  Biso   1.000  H
  H904      1.0000 0.64945  0.96385  0.72043  Biso   1.000  H
  H905      1.0000 0.59397  0.00979  0.76637  Biso   1.000  H
  H906      1.0000 0.72044  0.08078  0.76637  Biso   1.000  H
  H907      1.0000 0.76638  0.64944  0.72043  Biso   1.000  H
  H908      1.0000 0.76638  0.08078  0.00978  Biso   1.000  H
  H909      1.0000 0.76638  0.72044  0.08078  Biso   1.000  H
  H910      1.0000 0.64945  0.76638  0.00978  Biso   1.000  H
  H911      1.0000 0.59396  0.72044  0.96384  Biso   1.000  H
  H912      1.0000 0.72044  0.64944  0.96384  Biso   1.000  H
  H913      1.0000 0.72044  0.76638  0.64944  Biso   1.000  H
  H914      1.0000 0.52297  0.08078  0.76637  Biso   1.000  H
  H915      1.0000 0.52297  0.72044  0.83737  Biso   1.000  H
  H916      1.0000 0.47703  0.76638  0.89285  Biso   1.000  H
  H917      1.0000 0.40604  0.76638  0.76637  Biso   1.000  H
  H918      1.0000 0.47703  0.64944  0.72043  Biso   1.000  H
  H919      1.0000 0.83737  0.72044  0.72043  Biso   1.000  H
  C920      1.0000 0.50000  0.98682  0.04608  Biso   1.000  C
  C921      1.0000 0.50000  0.98682  0.07099  Biso   1.000  C
  S922      1.0000 0.51251  0.97431  0.08545  Biso   1.000  S
  C923      1.0000 0.50806  0.97876  0.62170  Biso   1.000  C
  C924      1.0000 0.49194  0.99487  0.62170  Biso   1.000  C
  C925      1.0000 0.48749  0.99933  0.08545  Biso   1.000  C
  H926      1.0000 0.47703  0.00979  0.08078  Biso   1.000  H
  H927      1.0000 0.59397  0.96385  0.00978  Biso   1.000  H
  H928      1.0000 0.64945  0.00979  0.96384  Biso   1.000  H
  H929      1.0000 0.52297  0.08078  0.96384  Biso   1.000  H
  O930      1.0000 0.51363  0.97319  0.69318  Biso   1.000  O
  C931      1.0000 0.50000  0.98682  0.68414  Biso   1.000  C
  C932      1.0000 0.50000  0.98682  0.65923  Biso   1.000  C
  S933      1.0000 0.48749  0.99933  0.64477  Biso   1.000  S
  O934      1.0000 0.48637  0.00045  0.69318  Biso   1.000  O
  C935      1.0000 0.51251  0.97431  0.64477  Biso   1.000  C
  H936      1.0000 0.52297  0.96385  0.64944  Biso   1.000  H
  H937      1.0000 0.47703  0.64944  0.00978  Biso   1.000  H
  H938      1.0000 0.52297  0.96385  0.08078  Biso   1.000  H
  H939      1.0000 0.40604  0.00979  0.00978  Biso   1.000  H
  H940      1.0000 0.47703  0.89285  0.96384  Biso   1.000  H
  H941      1.0000 0.52297  0.83737  0.00978  Biso   1.000  H
  H942      1.0000 0.83737  0.96385  0.96384  Biso   1.000  H
  Zn943      1.0000 0.99450  0.96814  0.48131  Biso   1.000  Zn
  O944      1.0000 0.01318  0.98682  0.50000  Biso   1.000  O
  O945      1.0000 0.99956  0.97319  0.44977  Biso   1.000  O
  C946      1.0000 0.01318  0.98682  0.44073  Biso   1.000  C
  C947      1.0000 0.01318  0.98682  0.41582  Biso   1.000  C
  S948      1.0000 0.02569  0.99933  0.40136  Biso   1.000  S
  C949      1.0000 0.02124  0.99487  0.37829  Biso   1.000  C
  O950      1.0000 0.02681  0.00045  0.30681  Biso   1.000  O
  C951      1.0000 0.01318  0.98682  0.31585  Biso   1.000  C
  C952      1.0000 0.01318  0.98682  0.34076  Biso   1.000  C
  S953      1.0000 0.00067  0.97431  0.35522  Biso   1.000  S
  C954      1.0000 0.00513  0.97876  0.37829  Biso   1.000  C
  O955      1.0000 0.02681  0.00045  0.44977  Biso   1.000  O
  C956      1.0000 0.00067  0.97431  0.40136  Biso   1.000  C
  H957      1.0000 0.99021  0.96385  0.40603  Biso   1.000  H
  O958      1.0000 0.99956  0.97319  0.30681  Biso   1.000  O
  C959      1.0000 0.02569  0.99933  0.35522  Biso   1.000  C
  H960      1.0000 0.03615  0.00979  0.35055  Biso   1.000  H
  Zn961      1.0000 0.03187  0.00550  0.48131  Biso   1.000  Zn
  O962      1.0000 0.06341  0.00045  0.48637  Biso   1.000  O
  C963      1.0000 0.07245  0.98682  0.50000  Biso   1.000  C
  C964      1.0000 0.09736  0.98682  0.50000  Biso   1.000  C
  S965      1.0000 0.11182  0.97431  0.51251  Biso   1.000  S
  C966      1.0000 0.13489  0.97876  0.50805  Biso   1.000  C
  O967      1.0000 0.20637  0.97319  0.51362  Biso   1.000  O
  C968      1.0000 0.19732  0.98682  0.50000  Biso   1.000  C
  C969      1.0000 0.17242  0.98682  0.50000  Biso   1.000  C
  S970      1.0000 0.15796  0.99933  0.48748  Biso   1.000  S
  C971      1.0000 0.13489  0.99487  0.49194  Biso   1.000  C
  O972      1.0000 0.06341  0.97319  0.51362  Biso   1.000  O
  C973      1.0000 0.11182  0.99933  0.48748  Biso   1.000  C
  H974      1.0000 0.10715  0.00979  0.47703  Biso   1.000  H
  O975      1.0000 0.20637  0.00045  0.48637  Biso   1.000  O
  C976      1.0000 0.15796  0.97431  0.51251  Biso   1.000  C
  H977      1.0000 0.16263  0.96385  0.52297  Biso   1.000  H
  Zn978      1.0000 0.03187  0.96814  0.51868  Biso   1.000  Zn
  O979      1.0000 0.02681  0.93659  0.51362  Biso   1.000  O
  C980      1.0000 0.01318  0.92755  0.50000  Biso   1.000  C
  C981      1.0000 0.01318  0.90265  0.50000  Biso   1.000  C
  S982      1.0000 0.00067  0.88818  0.48748  Biso   1.000  S
  C983      1.0000 0.00513  0.86511  0.49194  Biso   1.000  C
  O984      1.0000 0.99956  0.79364  0.48637  Biso   1.000  O
  C985      1.0000 0.01318  0.80268  0.50000  Biso   1.000  C
  C986      1.0000 0.01318  0.82758  0.50000  Biso   1.000  C
  S987      1.0000 0.02569  0.84204  0.51251  Biso   1.000  S
  C988      1.0000 0.02124  0.86511  0.50805  Biso   1.000  C
  O989      1.0000 0.99956  0.93659  0.48637  Biso   1.000  O
  C990      1.0000 0.02569  0.88818  0.51251  Biso   1.000  C
  H991      1.0000 0.03615  0.89285  0.52297  Biso   1.000  H
  O992      1.0000 0.02681  0.79364  0.51362  Biso   1.000  O
  C993      1.0000 0.00067  0.84204  0.48748  Biso   1.000  C
  H994      1.0000 0.99021  0.83737  0.47703  Biso   1.000  H
  Zn995      1.0000 0.99450  0.96814  0.27527  Biso   1.000  Zn
  Zn996      1.0000 0.99450  0.76209  0.48131  Biso   1.000  Zn
  Zn997      1.0000 0.23791  0.96814  0.51868  Biso   1.000  Zn
  Zn998      1.0000 0.03187  0.76209  0.51868  Biso   1.000  Zn
  Zn999      1.0000 0.23791  0.00550  0.48131  Biso   1.000  Zn
  Zn1000      1.0000 0.03187  0.00550  0.27527  Biso   1.000  Zn
  Zn1001      1.0000 0.99450  0.00550  0.51868  Biso   1.000  Zn
  O1002      1.0000 0.01318  0.98682  0.25659  Biso   1.000  O
  O1003      1.0000 0.99956  0.93659  0.27022  Biso   1.000  O
  O1004      1.0000 0.02681  0.97319  0.55022  Biso   1.000  O
  O1005      1.0000 0.96296  0.97319  0.27022  Biso   1.000  O
  O1006      1.0000 0.96296  0.97319  0.48637  Biso   1.000  O
  O1007      1.0000 0.02681  0.03704  0.48637  Biso   1.000  O
  C1008      1.0000 0.26465  0.99487  0.13488  Biso   1.000  C
  O1009      1.0000 0.27022  0.00045  0.55022  Biso   1.000  O
  C1010      1.0000 0.25659  0.98682  0.55926  Biso   1.000  C
  C1011      1.0000 0.25659  0.98682  0.58417  Biso   1.000  C
  S1012      1.0000 0.24408  0.97431  0.59863  Biso   1.000  S
  C1013      1.0000 0.24854  0.97876  0.13488  Biso   1.000  C
  O1014      1.0000 0.24296  0.97319  0.55022  Biso   1.000  O
  C1015      1.0000 0.26910  0.99933  0.59863  Biso   1.000  C
  H1016      1.0000 0.27956  0.00979  0.59396  Biso   1.000  H
  Zn1017      1.0000 0.27527  0.00550  0.51868  Biso   1.000  Zn
  O1018      1.0000 0.25659  0.98682  0.50000  Biso   1.000  O
  O1019      1.0000 0.24296  0.93659  0.51362  Biso   1.000  O
  C1020      1.0000 0.89148  0.97876  0.26464  Biso   1.000  C
  C1021      1.0000 0.95392  0.98682  0.25659  Biso   1.000  C
  C1022      1.0000 0.92901  0.98682  0.25659  Biso   1.000  C
  S1023      1.0000 0.91455  0.99933  0.24408  Biso   1.000  S
  C1024      1.0000 0.89148  0.99487  0.24853  Biso   1.000  C
  O1025      1.0000 0.96296  0.00045  0.24296  Biso   1.000  O
  C1026      1.0000 0.91455  0.97431  0.26910  Biso   1.000  C
  H1027      1.0000 0.91922  0.96385  0.27956  Biso   1.000  H
  Zn1028      1.0000 0.99450  0.00550  0.23790  Biso   1.000  Zn
  Zn1029      1.0000 0.23791  0.96814  0.23790  Biso   1.000  Zn
  O1030      1.0000 0.25659  0.98682  0.25659  Biso   1.000  O
  O1031      1.0000 0.24296  0.97319  0.20636  Biso   1.000  O
  C1032      1.0000 0.25659  0.98682  0.19732  Biso   1.000  C
  C1033      1.0000 0.25659  0.98682  0.17241  Biso   1.000  C
  S1034      1.0000 0.26910  0.99933  0.15795  Biso   1.000  S
  O1035      1.0000 0.27022  0.00045  0.20636  Biso   1.000  O
  C1036      1.0000 0.24408  0.97431  0.15795  Biso   1.000  C
  H1037      1.0000 0.23362  0.96385  0.16262  Biso   1.000  H
  Zn1038      1.0000 0.27527  0.00550  0.23790  Biso   1.000  Zn
  O1039      1.0000 0.30682  0.00045  0.24296  Biso   1.000  O
  C1040      1.0000 0.31586  0.98682  0.25659  Biso   1.000  C
  C1041      1.0000 0.34076  0.98682  0.25659  Biso   1.000  C
  S1042      1.0000 0.35523  0.97431  0.26910  Biso   1.000  S
  O1043      1.0000 0.30682  0.97319  0.27022  Biso   1.000  O
  C1044      1.0000 0.35523  0.99933  0.24408  Biso   1.000  C
  H1045      1.0000 0.35056  0.00979  0.23362  Biso   1.000  H
  Zn1046      1.0000 0.27527  0.96814  0.27527  Biso   1.000  Zn
  O1047      1.0000 0.27022  0.93659  0.27022  Biso   1.000  O
  C1048      1.0000 0.25659  0.92755  0.25659  Biso   1.000  C
  C1049      1.0000 0.25659  0.90265  0.25659  Biso   1.000  C
  S1050      1.0000 0.24408  0.88818  0.24408  Biso   1.000  S
  C1051      1.0000 0.24854  0.86511  0.24853  Biso   1.000  C
  O1052      1.0000 0.24296  0.79364  0.24296  Biso   1.000  O
  C1053      1.0000 0.25659  0.80268  0.25659  Biso   1.000  C
  C1054      1.0000 0.25659  0.82758  0.25659  Biso   1.000  C
  S1055      1.0000 0.26910  0.84204  0.26910  Biso   1.000  S
  C1056      1.0000 0.26465  0.86511  0.26464  Biso   1.000  C
  O1057      1.0000 0.24296  0.93659  0.24296  Biso   1.000  O
  C1058      1.0000 0.26910  0.88818  0.26910  Biso   1.000  C
  H1059      1.0000 0.27956  0.89285  0.27956  Biso   1.000  H
  O1060      1.0000 0.27022  0.79364  0.27022  Biso   1.000  O
  C1061      1.0000 0.24408  0.84204  0.24408  Biso   1.000  C
  H1062      1.0000 0.23362  0.83737  0.23362  Biso   1.000  H
  Zn1063      1.0000 0.23791  0.76209  0.23790  Biso   1.000  Zn
  Zn1064      1.0000 0.27527  0.76209  0.27527  Biso   1.000  Zn
  Zn1065      1.0000 0.23791  0.00550  0.27527  Biso   1.000  Zn
  O1066      1.0000 0.27022  0.97319  0.30681  Biso   1.000  O
  O1067      1.0000 0.20637  0.97319  0.24296  Biso   1.000  O
  O1068      1.0000 0.27022  0.03704  0.24296  Biso   1.000  O
  C1069      1.0000 0.24854  0.62170  0.49194  Biso   1.000  C
  O1070      1.0000 0.24296  0.03704  0.48637  Biso   1.000  O
  C1071      1.0000 0.25659  0.04609  0.50000  Biso   1.000  C
  C1072      1.0000 0.25659  0.07099  0.50000  Biso   1.000  C
  S1073      1.0000 0.26910  0.08545  0.51251  Biso   1.000  S
  C1074      1.0000 0.26465  0.62170  0.50805  Biso   1.000  C
  O1075      1.0000 0.27022  0.03704  0.51362  Biso   1.000  O
  C1076      1.0000 0.24408  0.08545  0.48748  Biso   1.000  C
  H1077      1.0000 0.23362  0.08078  0.47703  Biso   1.000  H
  C1078      1.0000 0.89148  0.73535  0.50805  Biso   1.000  C
  O1079      1.0000 0.96296  0.72978  0.51362  Biso   1.000  O
  C1080      1.0000 0.95392  0.74341  0.50000  Biso   1.000  C
  C1081      1.0000 0.92901  0.74341  0.50000  Biso   1.000  C
  S1082      1.0000 0.91455  0.75592  0.48748  Biso   1.000  S
  C1083      1.0000 0.89148  0.75147  0.49194  Biso   1.000  C
  O1084      1.0000 0.96296  0.75704  0.48637  Biso   1.000  O
  C1085      1.0000 0.91455  0.73090  0.51251  Biso   1.000  C
  H1086      1.0000 0.91922  0.72044  0.52297  Biso   1.000  H
  Zn1087      1.0000 0.99450  0.72473  0.51868  Biso   1.000  Zn
  Zn1088      1.0000 0.23791  0.72473  0.48131  Biso   1.000  Zn
  O1089      1.0000 0.25659  0.74341  0.50000  Biso   1.000  O
  O1090      1.0000 0.24296  0.72978  0.44977  Biso   1.000  O
  C1091      1.0000 0.25659  0.74341  0.44073  Biso   1.000  C
  C1092      1.0000 0.25659  0.74341  0.41582  Biso   1.000  C
  S1093      1.0000 0.26910  0.75592  0.40136  Biso   1.000  S
  C1094      1.0000 0.26465  0.75147  0.37829  Biso   1.000  C
  O1095      1.0000 0.27022  0.75704  0.30681  Biso   1.000  O
  C1096      1.0000 0.25659  0.74341  0.31585  Biso   1.000  C
  C1097      1.0000 0.25659  0.74341  0.34076  Biso   1.000  C
  S1098      1.0000 0.24408  0.73090  0.35522  Biso   1.000  S
  C1099      1.0000 0.24854  0.73535  0.37829  Biso   1.000  C
  O1100      1.0000 0.27022  0.75704  0.44977  Biso   1.000  O
  C1101      1.0000 0.24408  0.73090  0.40136  Biso   1.000  C
  H1102      1.0000 0.23362  0.72044  0.40603  Biso   1.000  H
  O1103      1.0000 0.24296  0.72978  0.30681  Biso   1.000  O
  C1104      1.0000 0.26910  0.75592  0.35522  Biso   1.000  C
  H1105      1.0000 0.27956  0.76638  0.35055  Biso   1.000  H
  Zn1106      1.0000 0.27527  0.76209  0.48131  Biso   1.000  Zn
  O1107      1.0000 0.30682  0.75704  0.48637  Biso   1.000  O
  C1108      1.0000 0.31586  0.74341  0.50000  Biso   1.000  C
  C1109      1.0000 0.34076  0.74341  0.50000  Biso   1.000  C
  S1110      1.0000 0.35523  0.73090  0.51251  Biso   1.000  S
  O1111      1.0000 0.30682  0.72978  0.51362  Biso   1.000  O
  C1112      1.0000 0.35523  0.75592  0.48748  Biso   1.000  C
  H1113      1.0000 0.35056  0.76638  0.47703  Biso   1.000  H
  Zn1114      1.0000 0.27527  0.72473  0.51868  Biso   1.000  Zn
  O1115      1.0000 0.27022  0.69318  0.51362  Biso   1.000  O
  C1116      1.0000 0.25659  0.68414  0.50000  Biso   1.000  C
  C1117      1.0000 0.25659  0.65924  0.50000  Biso   1.000  C
  S1118      1.0000 0.24408  0.64477  0.48748  Biso   1.000  S
  O1119      1.0000 0.24296  0.69318  0.48637  Biso   1.000  O
  C1120      1.0000 0.26910  0.64477  0.51251  Biso   1.000  C
  H1121      1.0000 0.27956  0.64945  0.52297  Biso   1.000  H
  Zn1122      1.0000 0.23791  0.72473  0.27527  Biso   1.000  Zn
  Zn1123      1.0000 0.23791  0.76209  0.51868  Biso   1.000  Zn
  O1124      1.0000 0.25659  0.74341  0.25659  Biso   1.000  O
  O1125      1.0000 0.24296  0.69318  0.27022  Biso   1.000  O
  O1126      1.0000 0.27022  0.72978  0.55022  Biso   1.000  O
  O1127      1.0000 0.20637  0.72978  0.27022  Biso   1.000  O
  O1128      1.0000 0.20637  0.72978  0.48637  Biso   1.000  O
  O1129      1.0000 0.27022  0.79364  0.48637  Biso   1.000  O
  C1130      1.0000 0.00513  0.62170  0.24853  Biso   1.000  C
  O1131      1.0000 0.99956  0.03704  0.24296  Biso   1.000  O
  C1132      1.0000 0.01318  0.04609  0.25659  Biso   1.000  C
  C1133      1.0000 0.01318  0.07099  0.25659  Biso   1.000  C
  S1134      1.0000 0.02569  0.08545  0.26910  Biso   1.000  S
  C1135      1.0000 0.02124  0.62170  0.26464  Biso   1.000  C
  O1136      1.0000 0.02681  0.03704  0.27022  Biso   1.000  O
  C1137      1.0000 0.00067  0.08545  0.24408  Biso   1.000  C
  H1138      1.0000 0.99021  0.08078  0.23362  Biso   1.000  H
  C1139      1.0000 0.02124  0.75147  0.13488  Biso   1.000  C
  O1140      1.0000 0.02681  0.75704  0.55022  Biso   1.000  O
  C1141      1.0000 0.01318  0.74341  0.55926  Biso   1.000  C
  C1142      1.0000 0.01318  0.74341  0.58417  Biso   1.000  C
  S1143      1.0000 0.00067  0.73090  0.59863  Biso   1.000  S
  C1144      1.0000 0.00513  0.73535  0.13488  Biso   1.000  C
  O1145      1.0000 0.99956  0.72978  0.55022  Biso   1.000  O
  C1146      1.0000 0.02569  0.75592  0.59863  Biso   1.000  C
  H1147      1.0000 0.03615  0.76638  0.59396  Biso   1.000  H
  O1148      1.0000 0.01318  0.74341  0.50000  Biso   1.000  O
  O1149      1.0000 0.99956  0.69318  0.51362  Biso   1.000  O
  Zn1150      1.0000 0.99450  0.72473  0.23790  Biso   1.000  Zn
  O1151      1.0000 0.01318  0.74341  0.25659  Biso   1.000  O
  O1152      1.0000 0.99956  0.72978  0.20636  Biso   1.000  O
  C1153      1.0000 0.01318  0.74341  0.19732  Biso   1.000  C
  C1154      1.0000 0.01318  0.74341  0.17241  Biso   1.000  C
  S1155      1.0000 0.02569  0.75592  0.15795  Biso   1.000  S
  O1156      1.0000 0.02681  0.75704  0.20636  Biso   1.000  O
  C1157      1.0000 0.00067  0.73090  0.15795  Biso   1.000  C
  H1158      1.0000 0.99021  0.72044  0.16262  Biso   1.000  H
  Zn1159      1.0000 0.03187  0.76209  0.23790  Biso   1.000  Zn
  O1160      1.0000 0.06341  0.75704  0.24296  Biso   1.000  O
  C1161      1.0000 0.07245  0.74341  0.25659  Biso   1.000  C
  C1162      1.0000 0.09736  0.74341  0.25659  Biso   1.000  C
  S1163      1.0000 0.11182  0.73090  0.26910  Biso   1.000  S
  C1164      1.0000 0.13489  0.73535  0.26464  Biso   1.000  C
  C1165      1.0000 0.19732  0.74341  0.25659  Biso   1.000  C
  C1166      1.0000 0.17242  0.74341  0.25659  Biso   1.000  C
  S1167      1.0000 0.15796  0.75592  0.24408  Biso   1.000  S
  C1168      1.0000 0.13489  0.75147  0.24853  Biso   1.000  C
  O1169      1.0000 0.06341  0.72978  0.27022  Biso   1.000  O
  C1170      1.0000 0.11182  0.75592  0.24408  Biso   1.000  C
  H1171      1.0000 0.10715  0.76638  0.23362  Biso   1.000  H
  O1172      1.0000 0.20637  0.75704  0.24296  Biso   1.000  O
  C1173      1.0000 0.15796  0.73090  0.26910  Biso   1.000  C
  H1174      1.0000 0.16263  0.72044  0.27956  Biso   1.000  H
  Zn1175      1.0000 0.03187  0.72473  0.27527  Biso   1.000  Zn
  O1176      1.0000 0.02681  0.69318  0.27022  Biso   1.000  O
  C1177      1.0000 0.01318  0.68414  0.25659  Biso   1.000  C
  C1178      1.0000 0.01318  0.65924  0.25659  Biso   1.000  C
  S1179      1.0000 0.00067  0.64477  0.24408  Biso   1.000  S
  O1180      1.0000 0.99956  0.69318  0.24296  Biso   1.000  O
  C1181      1.0000 0.02569  0.64477  0.26910  Biso   1.000  C
  H1182      1.0000 0.03615  0.64945  0.27956  Biso   1.000  H
  Zn1183      1.0000 0.99450  0.76209  0.27527  Biso   1.000  Zn
  O1184      1.0000 0.02681  0.72978  0.30681  Biso   1.000  O
  O1185      1.0000 0.96296  0.72978  0.24296  Biso   1.000  O
  O1186      1.0000 0.02681  0.79364  0.24296  Biso   1.000  O
  H1187      1.0000 0.27956  0.76638  0.40603  Biso   1.000  H
  H1188      1.0000 0.23362  0.72044  0.35055  Biso   1.000  H
  C1189      1.0000 0.19732  0.74341  0.50000  Biso   1.000  C
  C1190      1.0000 0.17242  0.74341  0.50000  Biso   1.000  C
  S1191      1.0000 0.15796  0.75592  0.51251  Biso   1.000  S
  C1192      1.0000 0.13489  0.75147  0.50805  Biso   1.000  C
  O1193      1.0000 0.06341  0.75704  0.51362  Biso   1.000  O
  C1194      1.0000 0.07245  0.74341  0.50000  Biso   1.000  C
  C1195      1.0000 0.09736  0.74341  0.50000  Biso   1.000  C
  S1196      1.0000 0.11182  0.73090  0.48748  Biso   1.000  S
  C1197      1.0000 0.13489  0.73535  0.49194  Biso   1.000  C
  O1198      1.0000 0.20637  0.75704  0.51362  Biso   1.000  O
  C1199      1.0000 0.15796  0.73090  0.48748  Biso   1.000  C
  H1200      1.0000 0.16263  0.72044  0.47703  Biso   1.000  H
  O1201      1.0000 0.06341  0.72978  0.48637  Biso   1.000  O
  C1202      1.0000 0.11182  0.75592  0.51251  Biso   1.000  C
  H1203      1.0000 0.10715  0.76638  0.52297  Biso   1.000  H
  O1204      1.0000 0.24296  0.79364  0.51362  Biso   1.000  O
  C1205      1.0000 0.25659  0.80268  0.50000  Biso   1.000  C
  C1206      1.0000 0.25659  0.82758  0.50000  Biso   1.000  C
  S1207      1.0000 0.26910  0.84204  0.48748  Biso   1.000  S
  C1208      1.0000 0.26465  0.86511  0.49194  Biso   1.000  C
  O1209      1.0000 0.27022  0.93659  0.48637  Biso   1.000  O
  C1210      1.0000 0.25659  0.92755  0.50000  Biso   1.000  C
  C1211      1.0000 0.25659  0.90265  0.50000  Biso   1.000  C
  S1212      1.0000 0.24408  0.88818  0.51251  Biso   1.000  S
  C1213      1.0000 0.24854  0.86511  0.50805  Biso   1.000  C
  C1214      1.0000 0.24408  0.84204  0.51251  Biso   1.000  C
  H1215      1.0000 0.23362  0.83737  0.52297  Biso   1.000  H
  C1216      1.0000 0.26910  0.88818  0.48748  Biso   1.000  C
  H1217      1.0000 0.27956  0.89285  0.47703  Biso   1.000  H
  Zn1218      1.0000 0.27527  0.96814  0.48131  Biso   1.000  Zn
  Zn1219      1.0000 0.03187  0.72473  0.48131  Biso   1.000  Zn
  O1220      1.0000 0.24296  0.75704  0.55022  Biso   1.000  O
  O1221      1.0000 0.30682  0.75704  0.27022  Biso   1.000  O
  O1222      1.0000 0.99956  0.75704  0.30681  Biso   1.000  O
  C1223      1.0000 0.01318  0.74341  0.31585  Biso   1.000  C
  C1224      1.0000 0.01318  0.74341  0.34076  Biso   1.000  C
  S1225      1.0000 0.02569  0.73090  0.35522  Biso   1.000  S
  C1226      1.0000 0.02124  0.73535  0.37829  Biso   1.000  C
  O1227      1.0000 0.02681  0.72978  0.44977  Biso   1.000  O
  C1228      1.0000 0.01318  0.74341  0.44073  Biso   1.000  C
  C1229      1.0000 0.01318  0.74341  0.41582  Biso   1.000  C
  S1230      1.0000 0.00067  0.75592  0.40136  Biso   1.000  S
  C1231      1.0000 0.00513  0.75147  0.37829  Biso   1.000  C
  C1232      1.0000 0.00067  0.75592  0.35522  Biso   1.000  C
  H1233      1.0000 0.99021  0.76638  0.35055  Biso   1.000  H
  O1234      1.0000 0.99956  0.75704  0.44977  Biso   1.000  O
  C1235      1.0000 0.02569  0.73090  0.40136  Biso   1.000  C
  H1236      1.0000 0.03615  0.72044  0.40603  Biso   1.000  H
  H1237      1.0000 0.10715  0.72044  0.27956  Biso   1.000  H
  H1238      1.0000 0.16263  0.76638  0.23362  Biso   1.000  H
  C1239      1.0000 0.01318  0.80268  0.25659  Biso   1.000  C
  C1240      1.0000 0.01318  0.82758  0.25659  Biso   1.000  C
  S1241      1.0000 0.00067  0.84204  0.26910  Biso   1.000  S
  C1242      1.0000 0.00513  0.86511  0.26464  Biso   1.000  C
  C1243      1.0000 0.01318  0.92755  0.25659  Biso   1.000  C
  C1244      1.0000 0.01318  0.90265  0.25659  Biso   1.000  C
  S1245      1.0000 0.02569  0.88818  0.24408  Biso   1.000  S
  C1246      1.0000 0.02124  0.86511  0.24853  Biso   1.000  C
  O1247      1.0000 0.99956  0.79364  0.27022  Biso   1.000  O
  C1248      1.0000 0.02569  0.84204  0.24408  Biso   1.000  C
  H1249      1.0000 0.03615  0.83737  0.23362  Biso   1.000  H
  O1250      1.0000 0.02681  0.93659  0.24296  Biso   1.000  O
  C1251      1.0000 0.00067  0.88818  0.26910  Biso   1.000  C
  H1252      1.0000 0.99021  0.89285  0.27956  Biso   1.000  H
  Zn1253      1.0000 0.03187  0.96814  0.23790  Biso   1.000  Zn
  O1254      1.0000 0.96296  0.75704  0.27022  Biso   1.000  O
  H1255      1.0000 0.03615  0.00979  0.40603  Biso   1.000  H
  H1256      1.0000 0.99021  0.96385  0.35055  Biso   1.000  H
  C1257      1.0000 0.95392  0.98682  0.50000  Biso   1.000  C
  C1258      1.0000 0.92901  0.98682  0.50000  Biso   1.000  C
  S1259      1.0000 0.91455  0.99933  0.51251  Biso   1.000  S
  C1260      1.0000 0.89148  0.99487  0.50805  Biso   1.000  C
  C1261      1.0000 0.89148  0.97876  0.49194  Biso   1.000  C
  O1262      1.0000 0.96296  0.00045  0.51362  Biso   1.000  O
  C1263      1.0000 0.91455  0.97431  0.48748  Biso   1.000  C
  H1264      1.0000 0.91922  0.96385  0.47703  Biso   1.000  H
  O1265      1.0000 0.99956  0.03704  0.51362  Biso   1.000  O
  C1266      1.0000 0.01318  0.04609  0.50000  Biso   1.000  C
  C1267      1.0000 0.01318  0.07099  0.50000  Biso   1.000  C
  S1268      1.0000 0.02569  0.08545  0.48748  Biso   1.000  S
  C1269      1.0000 0.02124  0.62170  0.49194  Biso   1.000  C
  C1270      1.0000 0.00513  0.62170  0.50805  Biso   1.000  C
  C1271      1.0000 0.00067  0.08545  0.51251  Biso   1.000  C
  H1272      1.0000 0.99021  0.08078  0.52297  Biso   1.000  H
  O1273      1.0000 0.99956  0.00045  0.55022  Biso   1.000  O
  O1274      1.0000 0.06341  0.00045  0.27022  Biso   1.000  O
  O1275      1.0000 0.30682  0.00045  0.51362  Biso   1.000  O
  C1276      1.0000 0.31586  0.98682  0.50000  Biso   1.000  C
  C1277      1.0000 0.34076  0.98682  0.50000  Biso   1.000  C
  S1278      1.0000 0.35523  0.97431  0.48748  Biso   1.000  S
  O1279      1.0000 0.30682  0.97319  0.48637  Biso   1.000  O
  C1280      1.0000 0.35523  0.99933  0.51251  Biso   1.000  C
  H1281      1.0000 0.35056  0.00979  0.52297  Biso   1.000  H
  O1282      1.0000 0.02681  0.69318  0.48637  Biso   1.000  O
  C1283      1.0000 0.01318  0.68414  0.50000  Biso   1.000  C
  C1284      1.0000 0.01318  0.65924  0.50000  Biso   1.000  C
  S1285      1.0000 0.00067  0.64477  0.51251  Biso   1.000  S
  C1286      1.0000 0.02569  0.64477  0.48748  Biso   1.000  C
  H1287      1.0000 0.03615  0.64945  0.47703  Biso   1.000  H
  C1288      1.0000 0.25659  0.98682  0.31585  Biso   1.000  C
  C1289      1.0000 0.25659  0.98682  0.34076  Biso   1.000  C
  S1290      1.0000 0.24408  0.99933  0.35522  Biso   1.000  S
  C1291      1.0000 0.24854  0.99487  0.37829  Biso   1.000  C
  O1292      1.0000 0.24296  0.00045  0.44977  Biso   1.000  O
  C1293      1.0000 0.25659  0.98682  0.44073  Biso   1.000  C
  C1294      1.0000 0.25659  0.98682  0.41582  Biso   1.000  C
  S1295      1.0000 0.26910  0.97431  0.40136  Biso   1.000  S
  C1296      1.0000 0.26465  0.97876  0.37829  Biso   1.000  C
  O1297      1.0000 0.24296  0.00045  0.30681  Biso   1.000  O
  C1298      1.0000 0.26910  0.97431  0.35522  Biso   1.000  C
  H1299      1.0000 0.27956  0.96385  0.35055  Biso   1.000  H
  O1300      1.0000 0.27022  0.97319  0.44977  Biso   1.000  O
  C1301      1.0000 0.24408  0.99933  0.40136  Biso   1.000  C
  H1302      1.0000 0.23362  0.00979  0.40603  Biso   1.000  H
  O1303      1.0000 0.20637  0.00045  0.27022  Biso   1.000  O
  C1304      1.0000 0.19732  0.98682  0.25659  Biso   1.000  C
  C1305      1.0000 0.17242  0.98682  0.25659  Biso   1.000  C
  S1306      1.0000 0.15796  0.97431  0.24408  Biso   1.000  S
  C1307      1.0000 0.13489  0.97876  0.24853  Biso   1.000  C
  O1308      1.0000 0.06341  0.97319  0.24296  Biso   1.000  O
  C1309      1.0000 0.07245  0.98682  0.25659  Biso   1.000  C
  C1310      1.0000 0.09736  0.98682  0.25659  Biso   1.000  C
  S1311      1.0000 0.11182  0.99933  0.26910  Biso   1.000  S
  C1312      1.0000 0.13489  0.99487  0.26464  Biso   1.000  C
  C1313      1.0000 0.15796  0.99933  0.26910  Biso   1.000  C
  H1314      1.0000 0.16263  0.00979  0.27956  Biso   1.000  H
  C1315      1.0000 0.11182  0.97431  0.24408  Biso   1.000  C
  H1316      1.0000 0.10715  0.96385  0.23362  Biso   1.000  H
  H1317      1.0000 0.23362  0.89285  0.23362  Biso   1.000  H
  H1318      1.0000 0.27956  0.83737  0.27956  Biso   1.000  H
  O1319      1.0000 0.24296  0.03704  0.27022  Biso   1.000  O
  H1320      1.0000 0.91922  0.00979  0.23362  Biso   1.000  H
  H1321      1.0000 0.23362  0.00979  0.35055  Biso   1.000  H
  H1322      1.0000 0.27956  0.96385  0.40603  Biso   1.000  H
  H1323      1.0000 0.35056  0.96385  0.27956  Biso   1.000  H
  C1324      1.0000 0.25659  0.04609  0.25659  Biso   1.000  C
  C1325      1.0000 0.25659  0.07099  0.25659  Biso   1.000  C
  S1326      1.0000 0.24408  0.08545  0.26910  Biso   1.000  S
  C1327      1.0000 0.24854  0.62170  0.26464  Biso   1.000  C
  C1328      1.0000 0.26465  0.62170  0.24853  Biso   1.000  C
  C1329      1.0000 0.26910  0.08545  0.24408  Biso   1.000  C
  H1330      1.0000 0.27956  0.08078  0.23362  Biso   1.000  H
  C1331      1.0000 0.25659  0.68414  0.25659  Biso   1.000  C
  C1332      1.0000 0.25659  0.65924  0.25659  Biso   1.000  C
  S1333      1.0000 0.26910  0.64477  0.24408  Biso   1.000  S
  O1334      1.0000 0.27022  0.69318  0.24296  Biso   1.000  O
  C1335      1.0000 0.24408  0.64477  0.26910  Biso   1.000  C
  H1336      1.0000 0.23362  0.64945  0.27956  Biso   1.000  H
  Zn1337      1.0000 0.27527  0.72473  0.23790  Biso   1.000  Zn
  H1338      1.0000 0.91922  0.76638  0.47703  Biso   1.000  H
  C1339      1.0000 0.25659  0.74341  0.55926  Biso   1.000  C
  C1340      1.0000 0.25659  0.74341  0.58417  Biso   1.000  C
  S1341      1.0000 0.26910  0.73090  0.59863  Biso   1.000  S
  C1342      1.0000 0.26465  0.73535  0.13488  Biso   1.000  C
  C1343      1.0000 0.24854  0.75147  0.13488  Biso   1.000  C
  C1344      1.0000 0.24408  0.75592  0.59863  Biso   1.000  C
  H1345      1.0000 0.23362  0.76638  0.59396  Biso   1.000  H
  H1346      1.0000 0.35056  0.72044  0.52297  Biso   1.000  H
  H1347      1.0000 0.27956  0.83737  0.47703  Biso   1.000  H
  H1348      1.0000 0.23362  0.89285  0.52297  Biso   1.000  H
  O1349      1.0000 0.27022  0.72978  0.20636  Biso   1.000  O
  C1350      1.0000 0.25659  0.74341  0.19732  Biso   1.000  C
  C1351      1.0000 0.25659  0.74341  0.17241  Biso   1.000  C
  S1352      1.0000 0.24408  0.75592  0.15795  Biso   1.000  S
  O1353      1.0000 0.24296  0.75704  0.20636  Biso   1.000  O
  C1354      1.0000 0.26910  0.73090  0.15795  Biso   1.000  C
  H1355      1.0000 0.27956  0.72044  0.16262  Biso   1.000  H
  H1356      1.0000 0.99021  0.72044  0.59396  Biso   1.000  H
  H1357      1.0000 0.03615  0.76638  0.16262  Biso   1.000  H
  C1358      1.0000 0.95392  0.74341  0.25659  Biso   1.000  C
  C1359      1.0000 0.92901  0.74341  0.25659  Biso   1.000  C
  S1360      1.0000 0.91455  0.75592  0.26910  Biso   1.000  S
  C1361      1.0000 0.89148  0.75147  0.26464  Biso   1.000  C
  C1362      1.0000 0.89148  0.73535  0.24853  Biso   1.000  C
  C1363      1.0000 0.91455  0.73090  0.24408  Biso   1.000  C
  H1364      1.0000 0.91922  0.72044  0.23362  Biso   1.000  H
  H1365      1.0000 0.99021  0.83737  0.27956  Biso   1.000  H
  H1366      1.0000 0.03615  0.89285  0.23362  Biso   1.000  H
  C1367      1.0000 0.31586  0.74341  0.25659  Biso   1.000  C
  C1368      1.0000 0.34076  0.74341  0.25659  Biso   1.000  C
  S1369      1.0000 0.35523  0.73090  0.24408  Biso   1.000  S
  O1370      1.0000 0.30682  0.72978  0.24296  Biso   1.000  O
  C1371      1.0000 0.35523  0.75592  0.26910  Biso   1.000  C
  H1372      1.0000 0.35056  0.76638  0.27956  Biso   1.000  H
  H1373      1.0000 0.23362  0.96385  0.59396  Biso   1.000  H
  H1374      1.0000 0.27956  0.00979  0.16262  Biso   1.000  H
  H1375      1.0000 0.16263  0.96385  0.23362  Biso   1.000  H
  H1376      1.0000 0.10715  0.00979  0.27956  Biso   1.000  H
  H1377      1.0000 0.23362  0.08078  0.27956  Biso   1.000  H
  H1378      1.0000 0.27956  0.64945  0.23362  Biso   1.000  H
  H1379      1.0000 0.27956  0.08078  0.52297  Biso   1.000  H
  H1380      1.0000 0.27956  0.72044  0.59396  Biso   1.000  H
  H1381      1.0000 0.16263  0.76638  0.52297  Biso   1.000  H
  H1382      1.0000 0.10715  0.72044  0.47703  Biso   1.000  H
  H1383      1.0000 0.23362  0.64945  0.47703  Biso   1.000  H
  H1384      1.0000 0.23362  0.76638  0.16262  Biso   1.000  H
  H1385      1.0000 0.03615  0.08078  0.27956  Biso   1.000  H
  H1386      1.0000 0.03615  0.72044  0.35055  Biso   1.000  H
  H1387      1.0000 0.99021  0.76638  0.40603  Biso   1.000  H
  H1388      1.0000 0.91922  0.76638  0.27956  Biso   1.000  H
  H1389      1.0000 0.99021  0.64945  0.23362  Biso   1.000  H
  H1390      1.0000 0.35056  0.72044  0.23362  Biso   1.000  H
  C1391      1.0000 0.01318  0.98682  0.55926  Biso   1.000  C
  C1392      1.0000 0.01318  0.98682  0.58417  Biso   1.000  C
  S1393      1.0000 0.02569  0.97431  0.59863  Biso   1.000  S
  C1394      1.0000 0.02124  0.97876  0.13488  Biso   1.000  C
  C1395      1.0000 0.00513  0.99487  0.13488  Biso   1.000  C
  C1396      1.0000 0.00067  0.99933  0.59863  Biso   1.000  C
  H1397      1.0000 0.99021  0.00979  0.59396  Biso   1.000  H
  H1398      1.0000 0.10715  0.96385  0.52297  Biso   1.000  H
  H1399      1.0000 0.16263  0.00979  0.47703  Biso   1.000  H
  H1400      1.0000 0.03615  0.08078  0.47703  Biso   1.000  H
  O1401      1.0000 0.02681  0.97319  0.20636  Biso   1.000  O
  C1402      1.0000 0.01318  0.98682  0.19732  Biso   1.000  C
  C1403      1.0000 0.01318  0.98682  0.17241  Biso   1.000  C
  S1404      1.0000 0.00067  0.99933  0.15795  Biso   1.000  S
  O1405      1.0000 0.99956  0.00045  0.20636  Biso   1.000  O
  C1406      1.0000 0.02569  0.97431  0.15795  Biso   1.000  C
  H1407      1.0000 0.03615  0.96385  0.16262  Biso   1.000  H
  H1408      1.0000 0.99021  0.64945  0.52297  Biso   1.000  H
  H1409      1.0000 0.03615  0.96385  0.59396  Biso   1.000  H
  H1410      1.0000 0.91922  0.00979  0.52297  Biso   1.000  H
  H1411      1.0000 0.99021  0.89285  0.47703  Biso   1.000  H
  H1412      1.0000 0.03615  0.83737  0.52297  Biso   1.000  H
  H1413      1.0000 0.35056  0.96385  0.47703  Biso   1.000  H
  Zn1414      1.0000 0.48132  0.96814  0.48131  Biso   1.000  Zn
  O1415      1.0000 0.50000  0.98682  0.50000  Biso   1.000  O
  O1416      1.0000 0.48637  0.97319  0.44977  Biso   1.000  O
  C1417      1.0000 0.50000  0.98682  0.44073  Biso   1.000  C
  C1418      1.0000 0.50000  0.98682  0.41582  Biso   1.000  C
  S1419      1.0000 0.51251  0.99933  0.40136  Biso   1.000  S
  C1420      1.0000 0.50806  0.99487  0.37829  Biso   1.000  C
  O1421      1.0000 0.51363  0.00045  0.30681  Biso   1.000  O
  C1422      1.0000 0.50000  0.98682  0.31585  Biso   1.000  C
  C1423      1.0000 0.50000  0.98682  0.34076  Biso   1.000  C
  S1424      1.0000 0.48749  0.97431  0.35522  Biso   1.000  S
  C1425      1.0000 0.49194  0.97876  0.37829  Biso   1.000  C
  O1426      1.0000 0.51363  0.00045  0.44977  Biso   1.000  O
  C1427      1.0000 0.48749  0.97431  0.40136  Biso   1.000  C
  H1428      1.0000 0.47703  0.96385  0.40603  Biso   1.000  H
  O1429      1.0000 0.48637  0.97319  0.30681  Biso   1.000  O
  C1430      1.0000 0.51251  0.99933  0.35522  Biso   1.000  C
  H1431      1.0000 0.52297  0.00979  0.35055  Biso   1.000  H
  Zn1432      1.0000 0.51868  0.00550  0.48131  Biso   1.000  Zn
  O1433      1.0000 0.55023  0.00045  0.48637  Biso   1.000  O
  C1434      1.0000 0.55927  0.98682  0.50000  Biso   1.000  C
  C1435      1.0000 0.58417  0.98682  0.50000  Biso   1.000  C
  S1436      1.0000 0.59864  0.97431  0.51251  Biso   1.000  S
  C1437      1.0000 0.62171  0.97876  0.50805  Biso   1.000  C
  O1438      1.0000 0.69318  0.97319  0.51362  Biso   1.000  O
  C1439      1.0000 0.68414  0.98682  0.50000  Biso   1.000  C
  C1440      1.0000 0.65924  0.98682  0.50000  Biso   1.000  C
  S1441      1.0000 0.64478  0.99933  0.48748  Biso   1.000  S
  C1442      1.0000 0.62171  0.99487  0.49194  Biso   1.000  C
  O1443      1.0000 0.55023  0.97319  0.51362  Biso   1.000  O
  C1444      1.0000 0.59864  0.99933  0.48748  Biso   1.000  C
  H1445      1.0000 0.59396  0.00979  0.47703  Biso   1.000  H
  O1446      1.0000 0.69318  0.00045  0.48637  Biso   1.000  O
  C1447      1.0000 0.64478  0.97431  0.51251  Biso   1.000  C
  H1448      1.0000 0.64945  0.96385  0.52297  Biso   1.000  H
  Zn1449      1.0000 0.51868  0.96814  0.51868  Biso   1.000  Zn
  O1450      1.0000 0.51363  0.93659  0.51362  Biso   1.000  O
  C1451      1.0000 0.50000  0.92755  0.50000  Biso   1.000  C
  C1452      1.0000 0.50000  0.90265  0.50000  Biso   1.000  C
  S1453      1.0000 0.48749  0.88818  0.48748  Biso   1.000  S
  C1454      1.0000 0.49194  0.86511  0.49194  Biso   1.000  C
  O1455      1.0000 0.48637  0.79364  0.48637  Biso   1.000  O
  C1456      1.0000 0.50000  0.80268  0.50000  Biso   1.000  C
  C1457      1.0000 0.50000  0.82758  0.50000  Biso   1.000  C
  S1458      1.0000 0.51251  0.84204  0.51251  Biso   1.000  S
  C1459      1.0000 0.50806  0.86511  0.50805  Biso   1.000  C
  O1460      1.0000 0.48637  0.93659  0.48637  Biso   1.000  O
  C1461      1.0000 0.51251  0.88818  0.51251  Biso   1.000  C
  H1462      1.0000 0.52297  0.89285  0.52297  Biso   1.000  H
  O1463      1.0000 0.51363  0.79364  0.51362  Biso   1.000  O
  C1464      1.0000 0.48749  0.84204  0.48748  Biso   1.000  C
  H1465      1.0000 0.47703  0.83737  0.47703  Biso   1.000  H
  Zn1466      1.0000 0.48132  0.96814  0.27527  Biso   1.000  Zn
  Zn1467      1.0000 0.48132  0.76209  0.48131  Biso   1.000  Zn
  Zn1468      1.0000 0.72473  0.96814  0.51868  Biso   1.000  Zn
  Zn1469      1.0000 0.51868  0.76209  0.51868  Biso   1.000  Zn
  Zn1470      1.0000 0.72473  0.00550  0.48131  Biso   1.000  Zn
  Zn1471      1.0000 0.51868  0.00550  0.27527  Biso   1.000  Zn
  Zn1472      1.0000 0.48132  0.00550  0.51868  Biso   1.000  Zn
  O1473      1.0000 0.50000  0.98682  0.25659  Biso   1.000  O
  O1474      1.0000 0.48637  0.93659  0.27022  Biso   1.000  O
  O1475      1.0000 0.51363  0.97319  0.55022  Biso   1.000  O
  O1476      1.0000 0.44977  0.97319  0.27022  Biso   1.000  O
  O1477      1.0000 0.44977  0.97319  0.48637  Biso   1.000  O
  O1478      1.0000 0.51363  0.03704  0.48637  Biso   1.000  O
  C1479      1.0000 0.75147  0.99487  0.13488  Biso   1.000  C
  O1480      1.0000 0.75704  0.00045  0.55022  Biso   1.000  O
  C1481      1.0000 0.74341  0.98682  0.55926  Biso   1.000  C
  C1482      1.0000 0.74341  0.98682  0.58417  Biso   1.000  C
  S1483      1.0000 0.73090  0.97431  0.59863  Biso   1.000  S
  C1484      1.0000 0.73535  0.97876  0.13488  Biso   1.000  C
  O1485      1.0000 0.72978  0.97319  0.55022  Biso   1.000  O
  C1486      1.0000 0.75592  0.99933  0.59863  Biso   1.000  C
  H1487      1.0000 0.76638  0.00979  0.59396  Biso   1.000  H
  Zn1488      1.0000 0.76209  0.00550  0.51868  Biso   1.000  Zn
  O1489      1.0000 0.74341  0.98682  0.50000  Biso   1.000  O
  O1490      1.0000 0.72978  0.93659  0.51362  Biso   1.000  O
  C1491      1.0000 0.37830  0.97876  0.26464  Biso   1.000  C
  C1492      1.0000 0.44073  0.98682  0.25659  Biso   1.000  C
  C1493      1.0000 0.41583  0.98682  0.25659  Biso   1.000  C
  S1494      1.0000 0.40137  0.99933  0.24408  Biso   1.000  S
  C1495      1.0000 0.37830  0.99487  0.24853  Biso   1.000  C
  O1496      1.0000 0.44977  0.00045  0.24296  Biso   1.000  O
  C1497      1.0000 0.40137  0.97431  0.26910  Biso   1.000  C
  H1498      1.0000 0.40604  0.96385  0.27956  Biso   1.000  H
  Zn1499      1.0000 0.48132  0.00550  0.23790  Biso   1.000  Zn
  Zn1500      1.0000 0.72473  0.96814  0.23790  Biso   1.000  Zn
  O1501      1.0000 0.74341  0.98682  0.25659  Biso   1.000  O
  O1502      1.0000 0.72978  0.97319  0.20636  Biso   1.000  O
  C1503      1.0000 0.74341  0.98682  0.19732  Biso   1.000  C
  C1504      1.0000 0.74341  0.98682  0.17241  Biso   1.000  C
  S1505      1.0000 0.75592  0.99933  0.15795  Biso   1.000  S
  O1506      1.0000 0.75704  0.00045  0.20636  Biso   1.000  O
  C1507      1.0000 0.73090  0.97431  0.15795  Biso   1.000  C
  H1508      1.0000 0.72044  0.96385  0.16262  Biso   1.000  H
  Zn1509      1.0000 0.76209  0.00550  0.23790  Biso   1.000  Zn
  O1510      1.0000 0.79364  0.00045  0.24296  Biso   1.000  O
  C1511      1.0000 0.80268  0.98682  0.25659  Biso   1.000  C
  C1512      1.0000 0.82758  0.98682  0.25659  Biso   1.000  C
  S1513      1.0000 0.84204  0.97431  0.26910  Biso   1.000  S
  O1514      1.0000 0.79364  0.97319  0.27022  Biso   1.000  O
  C1515      1.0000 0.84204  0.99933  0.24408  Biso   1.000  C
  H1516      1.0000 0.83737  0.00979  0.23362  Biso   1.000  H
  Zn1517      1.0000 0.76209  0.96814  0.27527  Biso   1.000  Zn
  O1518      1.0000 0.75704  0.93659  0.27022  Biso   1.000  O
  C1519      1.0000 0.74341  0.92755  0.25659  Biso   1.000  C
  C1520      1.0000 0.74341  0.90265  0.25659  Biso   1.000  C
  S1521      1.0000 0.73090  0.88818  0.24408  Biso   1.000  S
  C1522      1.0000 0.73535  0.86511  0.24853  Biso   1.000  C
  O1523      1.0000 0.72978  0.79364  0.24296  Biso   1.000  O
  C1524      1.0000 0.74341  0.80268  0.25659  Biso   1.000  C
  C1525      1.0000 0.74341  0.82758  0.25659  Biso   1.000  C
  S1526      1.0000 0.75592  0.84204  0.26910  Biso   1.000  S
  C1527      1.0000 0.75147  0.86511  0.26464  Biso   1.000  C
  O1528      1.0000 0.72978  0.93659  0.24296  Biso   1.000  O
  C1529      1.0000 0.75592  0.88818  0.26910  Biso   1.000  C
  H1530      1.0000 0.76638  0.89285  0.27956  Biso   1.000  H
  O1531      1.0000 0.75704  0.79364  0.27022  Biso   1.000  O
  C1532      1.0000 0.73090  0.84204  0.24408  Biso   1.000  C
  H1533      1.0000 0.72044  0.83737  0.23362  Biso   1.000  H
  Zn1534      1.0000 0.72473  0.76209  0.23790  Biso   1.000  Zn
  Zn1535      1.0000 0.76209  0.76209  0.27527  Biso   1.000  Zn
  Zn1536      1.0000 0.72473  0.00550  0.27527  Biso   1.000  Zn
  O1537      1.0000 0.75704  0.97319  0.30681  Biso   1.000  O
  O1538      1.0000 0.69318  0.97319  0.24296  Biso   1.000  O
  O1539      1.0000 0.75704  0.03704  0.24296  Biso   1.000  O
  C1540      1.0000 0.73535  0.62170  0.49194  Biso   1.000  C
  O1541      1.0000 0.72978  0.03704  0.48637  Biso   1.000  O
  C1542      1.0000 0.74341  0.04609  0.50000  Biso   1.000  C
  C1543      1.0000 0.74341  0.07099  0.50000  Biso   1.000  C
  S1544      1.0000 0.75592  0.08545  0.51251  Biso   1.000  S
  C1545      1.0000 0.75147  0.62170  0.50805  Biso   1.000  C
  O1546      1.0000 0.75704  0.03704  0.51362  Biso   1.000  O
  C1547      1.0000 0.73090  0.08545  0.48748  Biso   1.000  C
  H1548      1.0000 0.72044  0.08078  0.47703  Biso   1.000  H
  C1549      1.0000 0.37830  0.73535  0.50805  Biso   1.000  C
  O1550      1.0000 0.44977  0.72978  0.51362  Biso   1.000  O
  C1551      1.0000 0.44073  0.74341  0.50000  Biso   1.000  C
  C1552      1.0000 0.41583  0.74341  0.50000  Biso   1.000  C
  S1553      1.0000 0.40137  0.75592  0.48748  Biso   1.000  S
  C1554      1.0000 0.37830  0.75147  0.49194  Biso   1.000  C
  O1555      1.0000 0.44977  0.75704  0.48637  Biso   1.000  O
  C1556      1.0000 0.40137  0.73090  0.51251  Biso   1.000  C
  H1557      1.0000 0.40604  0.72044  0.52296  Biso   1.000  H
  Zn1558      1.0000 0.48132  0.72473  0.51868  Biso   1.000  Zn
  Zn1559      1.0000 0.72473  0.72473  0.48131  Biso   1.000  Zn
  O1560      1.0000 0.74341  0.74341  0.50000  Biso   1.000  O
  O1561      1.0000 0.72978  0.72978  0.44977  Biso   1.000  O
  C1562      1.0000 0.74341  0.74341  0.44073  Biso   1.000  C
  C1563      1.0000 0.74341  0.74341  0.41582  Biso   1.000  C
  S1564      1.0000 0.75592  0.75592  0.40136  Biso   1.000  S
  C1565      1.0000 0.75147  0.75147  0.37829  Biso   1.000  C
  O1566      1.0000 0.75704  0.75704  0.30681  Biso   1.000  O
  C1567      1.0000 0.74341  0.74341  0.31585  Biso   1.000  C
  C1568      1.0000 0.74341  0.74341  0.34076  Biso   1.000  C
  S1569      1.0000 0.73090  0.73090  0.35522  Biso   1.000  S
  C1570      1.0000 0.73535  0.73535  0.37829  Biso   1.000  C
  O1571      1.0000 0.75704  0.75704  0.44977  Biso   1.000  O
  C1572      1.0000 0.73090  0.73090  0.40136  Biso   1.000  C
  H1573      1.0000 0.72044  0.72044  0.40603  Biso   1.000  H
  O1574      1.0000 0.72978  0.72978  0.30681  Biso   1.000  O
  C1575      1.0000 0.75592  0.75592  0.35522  Biso   1.000  C
  H1576      1.0000 0.76638  0.76638  0.35055  Biso   1.000  H
  Zn1577      1.0000 0.76209  0.76209  0.48131  Biso   1.000  Zn
  O1578      1.0000 0.79364  0.75704  0.48637  Biso   1.000  O
  C1579      1.0000 0.80268  0.74341  0.50000  Biso   1.000  C
  C1580      1.0000 0.82758  0.74341  0.50000  Biso   1.000  C
  S1581      1.0000 0.84204  0.73090  0.51251  Biso   1.000  S
  O1582      1.0000 0.79364  0.72978  0.51362  Biso   1.000  O
  C1583      1.0000 0.84204  0.75592  0.48748  Biso   1.000  C
  H1584      1.0000 0.83737  0.76638  0.47703  Biso   1.000  H
  Zn1585      1.0000 0.76209  0.72473  0.51868  Biso   1.000  Zn
  O1586      1.0000 0.75704  0.69318  0.51362  Biso   1.000  O
  C1587      1.0000 0.74341  0.68414  0.50000  Biso   1.000  C
  C1588      1.0000 0.74341  0.65924  0.50000  Biso   1.000  C
  S1589      1.0000 0.73090  0.64477  0.48748  Biso   1.000  S
  O1590      1.0000 0.72978  0.69318  0.48637  Biso   1.000  O
  C1591      1.0000 0.75592  0.64477  0.51251  Biso   1.000  C
  H1592      1.0000 0.76638  0.64944  0.52296  Biso   1.000  H
  Zn1593      1.0000 0.72473  0.72473  0.27527  Biso   1.000  Zn
  Zn1594      1.0000 0.72473  0.76209  0.51868  Biso   1.000  Zn
  O1595      1.0000 0.74341  0.74341  0.25659  Biso   1.000  O
  O1596      1.0000 0.72978  0.69318  0.27022  Biso   1.000  O
  O1597      1.0000 0.75704  0.72978  0.55022  Biso   1.000  O
  O1598      1.0000 0.69318  0.72978  0.27022  Biso   1.000  O
  O1599      1.0000 0.69318  0.72978  0.48637  Biso   1.000  O
  O1600      1.0000 0.75704  0.79364  0.48637  Biso   1.000  O
  C1601      1.0000 0.49194  0.62170  0.24853  Biso   1.000  C
  O1602      1.0000 0.48637  0.03704  0.24296  Biso   1.000  O
  C1603      1.0000 0.50000  0.04609  0.25659  Biso   1.000  C
  C1604      1.0000 0.50000  0.07099  0.25659  Biso   1.000  C
  S1605      1.0000 0.51251  0.08545  0.26910  Biso   1.000  S
  C1606      1.0000 0.50806  0.62170  0.26464  Biso   1.000  C
  O1607      1.0000 0.51363  0.03704  0.27022  Biso   1.000  O
  C1608      1.0000 0.48749  0.08545  0.24408  Biso   1.000  C
  H1609      1.0000 0.47703  0.08078  0.23362  Biso   1.000  H
  C1610      1.0000 0.50806  0.75147  0.13488  Biso   1.000  C
  O1611      1.0000 0.51363  0.75704  0.55022  Biso   1.000  O
  C1612      1.0000 0.50000  0.74341  0.55926  Biso   1.000  C
  C1613      1.0000 0.50000  0.74341  0.58417  Biso   1.000  C
  S1614      1.0000 0.48749  0.73090  0.59863  Biso   1.000  S
  C1615      1.0000 0.49194  0.73535  0.13488  Biso   1.000  C
  O1616      1.0000 0.48637  0.72978  0.55022  Biso   1.000  O
  C1617      1.0000 0.51251  0.75592  0.59863  Biso   1.000  C
  H1618      1.0000 0.52297  0.76638  0.59396  Biso   1.000  H
  O1619      1.0000 0.50000  0.74341  0.50000  Biso   1.000  O
  O1620      1.0000 0.48637  0.69318  0.51362  Biso   1.000  O
  Zn1621      1.0000 0.48132  0.72473  0.23790  Biso   1.000  Zn
  O1622      1.0000 0.50000  0.74341  0.25659  Biso   1.000  O
  O1623      1.0000 0.48637  0.72978  0.20636  Biso   1.000  O
  C1624      1.0000 0.50000  0.74341  0.19732  Biso   1.000  C
  C1625      1.0000 0.50000  0.74341  0.17241  Biso   1.000  C
  S1626      1.0000 0.51251  0.75592  0.15795  Biso   1.000  S
  O1627      1.0000 0.51363  0.75704  0.20636  Biso   1.000  O
  C1628      1.0000 0.48749  0.73090  0.15795  Biso   1.000  C
  H1629      1.0000 0.47703  0.72044  0.16262  Biso   1.000  H
  Zn1630      1.0000 0.51868  0.76209  0.23790  Biso   1.000  Zn
  O1631      1.0000 0.55023  0.75704  0.24296  Biso   1.000  O
  C1632      1.0000 0.55927  0.74341  0.25659  Biso   1.000  C
  C1633      1.0000 0.58417  0.74341  0.25659  Biso   1.000  C
  S1634      1.0000 0.59864  0.73090  0.26910  Biso   1.000  S
  C1635      1.0000 0.62171  0.73535  0.26464  Biso   1.000  C
  C1636      1.0000 0.68414  0.74341  0.25659  Biso   1.000  C
  C1637      1.0000 0.65924  0.74341  0.25659  Biso   1.000  C
  S1638      1.0000 0.64478  0.75592  0.24408  Biso   1.000  S
  C1639      1.0000 0.62171  0.75147  0.24853  Biso   1.000  C
  O1640      1.0000 0.55023  0.72978  0.27022  Biso   1.000  O
  C1641      1.0000 0.59864  0.75592  0.24408  Biso   1.000  C
  H1642      1.0000 0.59396  0.76638  0.23362  Biso   1.000  H
  O1643      1.0000 0.69318  0.75704  0.24296  Biso   1.000  O
  C1644      1.0000 0.64478  0.73090  0.26910  Biso   1.000  C
  H1645      1.0000 0.64945  0.72044  0.27956  Biso   1.000  H
  Zn1646      1.0000 0.51868  0.72473  0.27527  Biso   1.000  Zn
  O1647      1.0000 0.51363  0.69318  0.27022  Biso   1.000  O
  C1648      1.0000 0.50000  0.68414  0.25659  Biso   1.000  C
  C1649      1.0000 0.50000  0.65924  0.25659  Biso   1.000  C
  S1650      1.0000 0.48749  0.64477  0.24408  Biso   1.000  S
  O1651      1.0000 0.48637  0.69318  0.24296  Biso   1.000  O
  C1652      1.0000 0.51251  0.64477  0.26910  Biso   1.000  C
  H1653      1.0000 0.52297  0.64945  0.27956  Biso   1.000  H
  Zn1654      1.0000 0.48132  0.76209  0.27527  Biso   1.000  Zn
  O1655      1.0000 0.51363  0.72978  0.30681  Biso   1.000  O
  O1656      1.0000 0.44977  0.72978  0.24296  Biso   1.000  O
  O1657      1.0000 0.51363  0.79364  0.24296  Biso   1.000  O
  H1658      1.0000 0.76638  0.76638  0.40603  Biso   1.000  H
  H1659      1.0000 0.72044  0.72044  0.35055  Biso   1.000  H
  C1660      1.0000 0.68414  0.74341  0.50000  Biso   1.000  C
  C1661      1.0000 0.65924  0.74341  0.50000  Biso   1.000  C
  S1662      1.0000 0.64478  0.75592  0.51251  Biso   1.000  S
  C1663      1.0000 0.62171  0.75147  0.50805  Biso   1.000  C
  O1664      1.0000 0.55023  0.75704  0.51362  Biso   1.000  O
  C1665      1.0000 0.55927  0.74341  0.50000  Biso   1.000  C
  C1666      1.0000 0.58417  0.74341  0.50000  Biso   1.000  C
  S1667      1.0000 0.59864  0.73090  0.48748  Biso   1.000  S
  C1668      1.0000 0.62171  0.73535  0.49194  Biso   1.000  C
  O1669      1.0000 0.69318  0.75704  0.51362  Biso   1.000  O
  C1670      1.0000 0.64478  0.73090  0.48748  Biso   1.000  C
  H1671      1.0000 0.64945  0.72044  0.47703  Biso   1.000  H
  O1672      1.0000 0.55023  0.72978  0.48637  Biso   1.000  O
  C1673      1.0000 0.59864  0.75592  0.51251  Biso   1.000  C
  H1674      1.0000 0.59396  0.76638  0.52296  Biso   1.000  H
  O1675      1.0000 0.72978  0.79364  0.51362  Biso   1.000  O
  C1676      1.0000 0.74341  0.80268  0.50000  Biso   1.000  C
  C1677      1.0000 0.74341  0.82758  0.50000  Biso   1.000  C
  S1678      1.0000 0.75592  0.84204  0.48748  Biso   1.000  S
  C1679      1.0000 0.75147  0.86511  0.49194  Biso   1.000  C
  O1680      1.0000 0.75704  0.93659  0.48637  Biso   1.000  O
  C1681      1.0000 0.74341  0.92755  0.50000  Biso   1.000  C
  C1682      1.0000 0.74341  0.90265  0.50000  Biso   1.000  C
  S1683      1.0000 0.73090  0.88818  0.51251  Biso   1.000  S
  C1684      1.0000 0.73535  0.86511  0.50805  Biso   1.000  C
  C1685      1.0000 0.73090  0.84204  0.51251  Biso   1.000  C
  H1686      1.0000 0.72044  0.83737  0.52297  Biso   1.000  H
  C1687      1.0000 0.75592  0.88818  0.48748  Biso   1.000  C
  H1688      1.0000 0.76638  0.89285  0.47703  Biso   1.000  H
  Zn1689      1.0000 0.76209  0.96814  0.48131  Biso   1.000  Zn
  Zn1690      1.0000 0.51868  0.72473  0.48131  Biso   1.000  Zn
  O1691      1.0000 0.72978  0.75704  0.55022  Biso   1.000  O
  O1692      1.0000 0.79364  0.75704  0.27022  Biso   1.000  O
  O1693      1.0000 0.48637  0.75704  0.30681  Biso   1.000  O
  C1694      1.0000 0.50000  0.74341  0.31585  Biso   1.000  C
  C1695      1.0000 0.50000  0.74341  0.34076  Biso   1.000  C
  S1696      1.0000 0.51251  0.73090  0.35522  Biso   1.000  S
  C1697      1.0000 0.50806  0.73535  0.37829  Biso   1.000  C
  O1698      1.0000 0.51363  0.72978  0.44977  Biso   1.000  O
  C1699      1.0000 0.50000  0.74341  0.44073  Biso   1.000  C
  C1700      1.0000 0.50000  0.74341  0.41582  Biso   1.000  C
  S1701      1.0000 0.48749  0.75592  0.40136  Biso   1.000  S
  C1702      1.0000 0.49194  0.75147  0.37829  Biso   1.000  C
  C1703      1.0000 0.48749  0.75592  0.35522  Biso   1.000  C
  H1704      1.0000 0.47703  0.76638  0.35055  Biso   1.000  H
  O1705      1.0000 0.48637  0.75704  0.44977  Biso   1.000  O
  C1706      1.0000 0.51251  0.73090  0.40136  Biso   1.000  C
  H1707      1.0000 0.52297  0.72044  0.40603  Biso   1.000  H
  H1708      1.0000 0.59396  0.72044  0.27956  Biso   1.000  H
  H1709      1.0000 0.64945  0.76638  0.23362  Biso   1.000  H
  C1710      1.0000 0.50000  0.80268  0.25659  Biso   1.000  C
  C1711      1.0000 0.50000  0.82758  0.25659  Biso   1.000  C
  S1712      1.0000 0.48749  0.84204  0.26910  Biso   1.000  S
  C1713      1.0000 0.49194  0.86511  0.26464  Biso   1.000  C
  C1714      1.0000 0.50000  0.92755  0.25659  Biso   1.000  C
  C1715      1.0000 0.50000  0.90265  0.25659  Biso   1.000  C
  S1716      1.0000 0.51251  0.88818  0.24408  Biso   1.000  S
  C1717      1.0000 0.50806  0.86511  0.24853  Biso   1.000  C
  O1718      1.0000 0.48637  0.79364  0.27022  Biso   1.000  O
  C1719      1.0000 0.51251  0.84204  0.24408  Biso   1.000  C
  H1720      1.0000 0.52297  0.83737  0.23362  Biso   1.000  H
  O1721      1.0000 0.51363  0.93659  0.24296  Biso   1.000  O
  C1722      1.0000 0.48749  0.88818  0.26910  Biso   1.000  C
  H1723      1.0000 0.47703  0.89285  0.27956  Biso   1.000  H
  Zn1724      1.0000 0.51868  0.96814  0.23790  Biso   1.000  Zn
  O1725      1.0000 0.44977  0.75704  0.27022  Biso   1.000  O
  H1726      1.0000 0.52297  0.00979  0.40603  Biso   1.000  H
  H1727      1.0000 0.47703  0.96385  0.35055  Biso   1.000  H
  C1728      1.0000 0.44073  0.98682  0.50000  Biso   1.000  C
  C1729      1.0000 0.41583  0.98682  0.50000  Biso   1.000  C
  S1730      1.0000 0.40137  0.99933  0.51251  Biso   1.000  S
  C1731      1.0000 0.37830  0.99487  0.50805  Biso   1.000  C
  C1732      1.0000 0.37830  0.97876  0.49194  Biso   1.000  C
  O1733      1.0000 0.44977  0.00045  0.51362  Biso   1.000  O
  C1734      1.0000 0.40137  0.97431  0.48748  Biso   1.000  C
  H1735      1.0000 0.40604  0.96385  0.47703  Biso   1.000  H
  O1736      1.0000 0.48637  0.03704  0.51362  Biso   1.000  O
  C1737      1.0000 0.50000  0.04609  0.50000  Biso   1.000  C
  C1738      1.0000 0.50000  0.07099  0.50000  Biso   1.000  C
  S1739      1.0000 0.51251  0.08545  0.48748  Biso   1.000  S
  C1740      1.0000 0.50806  0.62170  0.49194  Biso   1.000  C
  C1741      1.0000 0.49194  0.62170  0.50805  Biso   1.000  C
  C1742      1.0000 0.48749  0.08545  0.51251  Biso   1.000  C
  H1743      1.0000 0.47703  0.08078  0.52297  Biso   1.000  H
  O1744      1.0000 0.48637  0.00045  0.55022  Biso   1.000  O
  O1745      1.0000 0.55023  0.00045  0.27022  Biso   1.000  O
  O1746      1.0000 0.79364  0.00045  0.51362  Biso   1.000  O
  C1747      1.0000 0.80268  0.98682  0.50000  Biso   1.000  C
  C1748      1.0000 0.82758  0.98682  0.50000  Biso   1.000  C
  S1749      1.0000 0.84204  0.97431  0.48748  Biso   1.000  S
  O1750      1.0000 0.79364  0.97319  0.48637  Biso   1.000  O
  C1751      1.0000 0.84204  0.99933  0.51251  Biso   1.000  C
  H1752      1.0000 0.83737  0.00979  0.52297  Biso   1.000  H
  O1753      1.0000 0.51363  0.69318  0.48637  Biso   1.000  O
  C1754      1.0000 0.50000  0.68414  0.50000  Biso   1.000  C
  C1755      1.0000 0.50000  0.65924  0.50000  Biso   1.000  C
  S1756      1.0000 0.48749  0.64477  0.51251  Biso   1.000  S
  C1757      1.0000 0.51251  0.64477  0.48748  Biso   1.000  C
  H1758      1.0000 0.52297  0.64945  0.47703  Biso   1.000  H
  C1759      1.0000 0.74341  0.98682  0.31585  Biso   1.000  C
  C1760      1.0000 0.74341  0.98682  0.34076  Biso   1.000  C
  S1761      1.0000 0.73090  0.99933  0.35522  Biso   1.000  S
  C1762      1.0000 0.73535  0.99487  0.37829  Biso   1.000  C
  O1763      1.0000 0.72978  0.00045  0.44977  Biso   1.000  O
  C1764      1.0000 0.74341  0.98682  0.44073  Biso   1.000  C
  C1765      1.0000 0.74341  0.98682  0.41582  Biso   1.000  C
  S1766      1.0000 0.75592  0.97431  0.40136  Biso   1.000  S
  C1767      1.0000 0.75147  0.97876  0.37829  Biso   1.000  C
  O1768      1.0000 0.72978  0.00045  0.30681  Biso   1.000  O
  C1769      1.0000 0.75592  0.97431  0.35522  Biso   1.000  C
  H1770      1.0000 0.76638  0.96385  0.35055  Biso   1.000  H
  O1771      1.0000 0.75704  0.97319  0.44977  Biso   1.000  O
  C1772      1.0000 0.73090  0.99933  0.40136  Biso   1.000  C
  H1773      1.0000 0.72044  0.00979  0.40603  Biso   1.000  H
  O1774      1.0000 0.69318  0.00045  0.27022  Biso   1.000  O
  C1775      1.0000 0.68414  0.98682  0.25659  Biso   1.000  C
  C1776      1.0000 0.65924  0.98682  0.25659  Biso   1.000  C
  S1777      1.0000 0.64478  0.97431  0.24408  Biso   1.000  S
  C1778      1.0000 0.62171  0.97876  0.24853  Biso   1.000  C
  O1779      1.0000 0.55023  0.97319  0.24296  Biso   1.000  O
  C1780      1.0000 0.55927  0.98682  0.25659  Biso   1.000  C
  C1781      1.0000 0.58417  0.98682  0.25659  Biso   1.000  C
  S1782      1.0000 0.59864  0.99933  0.26910  Biso   1.000  S
  C1783      1.0000 0.62171  0.99487  0.26464  Biso   1.000  C
  C1784      1.0000 0.64478  0.99933  0.26910  Biso   1.000  C
  H1785      1.0000 0.64945  0.00979  0.27956  Biso   1.000  H
  C1786      1.0000 0.59864  0.97431  0.24408  Biso   1.000  C
  H1787      1.0000 0.59396  0.96385  0.23362  Biso   1.000  H
  H1788      1.0000 0.72044  0.89285  0.23362  Biso   1.000  H
  H1789      1.0000 0.76638  0.83737  0.27956  Biso   1.000  H
  O1790      1.0000 0.72978  0.03704  0.27022  Biso   1.000  O
  H1791      1.0000 0.40604  0.00979  0.23362  Biso   1.000  H
  H1792      1.0000 0.72044  0.00979  0.35055  Biso   1.000  H
  H1793      1.0000 0.76638  0.96385  0.40603  Biso   1.000  H
  H1794      1.0000 0.83737  0.96385  0.27956  Biso   1.000  H
  C1795      1.0000 0.74341  0.04609  0.25659  Biso   1.000  C
  C1796      1.0000 0.74341  0.07099  0.25659  Biso   1.000  C
  S1797      1.0000 0.73090  0.08545  0.26910  Biso   1.000  S
  C1798      1.0000 0.73535  0.62170  0.26464  Biso   1.000  C
  C1799      1.0000 0.75147  0.62170  0.24853  Biso   1.000  C
  C1800      1.0000 0.75592  0.08545  0.24408  Biso   1.000  C
  H1801      1.0000 0.76638  0.08078  0.23362  Biso   1.000  H
  C1802      1.0000 0.74341  0.68414  0.25659  Biso   1.000  C
  C1803      1.0000 0.74341  0.65924  0.25659  Biso   1.000  C
  S1804      1.0000 0.75592  0.64477  0.24408  Biso   1.000  S
  O1805      1.0000 0.75704  0.69318  0.24296  Biso   1.000  O
  C1806      1.0000 0.73090  0.64477  0.26910  Biso   1.000  C
  H1807      1.0000 0.72044  0.64945  0.27956  Biso   1.000  H
  Zn1808      1.0000 0.76209  0.72473  0.23790  Biso   1.000  Zn
  H1809      1.0000 0.40604  0.76638  0.47703  Biso   1.000  H
  C1810      1.0000 0.74341  0.74341  0.55926  Biso   1.000  C
  C1811      1.0000 0.74341  0.74341  0.58417  Biso   1.000  C
  S1812      1.0000 0.75592  0.73090  0.59863  Biso   1.000  S
  C1813      1.0000 0.75147  0.73535  0.13488  Biso   1.000  C
  C1814      1.0000 0.73535  0.75147  0.13488  Biso   1.000  C
  C1815      1.0000 0.73090  0.75592  0.59863  Biso   1.000  C
  H1816      1.0000 0.72044  0.76638  0.59396  Biso   1.000  H
  H1817      1.0000 0.83737  0.72044  0.52296  Biso   1.000  H
  H1818      1.0000 0.76638  0.83737  0.47703  Biso   1.000  H
  H1819      1.0000 0.72044  0.89285  0.52297  Biso   1.000  H
  O1820      1.0000 0.75704  0.72978  0.20636  Biso   1.000  O
  C1821      1.0000 0.74341  0.74341  0.19732  Biso   1.000  C
  C1822      1.0000 0.74341  0.74341  0.17241  Biso   1.000  C
  S1823      1.0000 0.73090  0.75592  0.15795  Biso   1.000  S
  O1824      1.0000 0.72978  0.75704  0.20636  Biso   1.000  O
  C1825      1.0000 0.75592  0.73090  0.15795  Biso   1.000  C
  H1826      1.0000 0.76638  0.72044  0.16262  Biso   1.000  H
  H1827      1.0000 0.47703  0.72044  0.59396  Biso   1.000  H
  H1828      1.0000 0.52297  0.76638  0.16262  Biso   1.000  H
  C1829      1.0000 0.44073  0.74341  0.25659  Biso   1.000  C
  C1830      1.0000 0.41583  0.74341  0.25659  Biso   1.000  C
  S1831      1.0000 0.40137  0.75592  0.26910  Biso   1.000  S
  C1832      1.0000 0.37830  0.75147  0.26464  Biso   1.000  C
  C1833      1.0000 0.37830  0.73535  0.24853  Biso   1.000  C
  C1834      1.0000 0.40137  0.73090  0.24408  Biso   1.000  C
  H1835      1.0000 0.40604  0.72044  0.23362  Biso   1.000  H
  H1836      1.0000 0.47703  0.83737  0.27956  Biso   1.000  H
  H1837      1.0000 0.52297  0.89285  0.23362  Biso   1.000  H
  C1838      1.0000 0.80268  0.74341  0.25659  Biso   1.000  C
  C1839      1.0000 0.82758  0.74341  0.25659  Biso   1.000  C
  S1840      1.0000 0.84204  0.73090  0.24408  Biso   1.000  S
  O1841      1.0000 0.79364  0.72978  0.24296  Biso   1.000  O
  C1842      1.0000 0.84204  0.75592  0.26910  Biso   1.000  C
  H1843      1.0000 0.83737  0.76638  0.27956  Biso   1.000  H
  H1844      1.0000 0.72044  0.96385  0.59396  Biso   1.000  H
  H1845      1.0000 0.76638  0.00979  0.16262  Biso   1.000  H
  H1846      1.0000 0.64945  0.96385  0.23362  Biso   1.000  H
  H1847      1.0000 0.59396  0.00979  0.27956  Biso   1.000  H
  H1848      1.0000 0.72044  0.08078  0.27956  Biso   1.000  H
  H1849      1.0000 0.76638  0.64945  0.23362  Biso   1.000  H
  H1850      1.0000 0.76638  0.08078  0.52297  Biso   1.000  H
  H1851      1.0000 0.76638  0.72044  0.59396  Biso   1.000  H
  H1852      1.0000 0.64945  0.76638  0.52296  Biso   1.000  H
  H1853      1.0000 0.59396  0.72044  0.47703  Biso   1.000  H
  H1854      1.0000 0.72044  0.64944  0.47703  Biso   1.000  H
  H1855      1.0000 0.72044  0.76638  0.16262  Biso   1.000  H
  H1856      1.0000 0.52297  0.08078  0.27956  Biso   1.000  H
  H1857      1.0000 0.52297  0.72044  0.35055  Biso   1.000  H
  H1858      1.0000 0.47703  0.76638  0.40603  Biso   1.000  H
  H1859      1.0000 0.40604  0.76638  0.27956  Biso   1.000  H
  H1860      1.0000 0.47703  0.64945  0.23362  Biso   1.000  H
  H1861      1.0000 0.83737  0.72044  0.23362  Biso   1.000  H
  C1862      1.0000 0.50000  0.98682  0.55926  Biso   1.000  C
  C1863      1.0000 0.50000  0.98682  0.58417  Biso   1.000  C
  S1864      1.0000 0.51251  0.97431  0.59863  Biso   1.000  S
  C1865      1.0000 0.50806  0.97876  0.13488  Biso   1.000  C
  C1866      1.0000 0.49194  0.99487  0.13488  Biso   1.000  C
  C1867      1.0000 0.48749  0.99933  0.59863  Biso   1.000  C
  H1868      1.0000 0.47703  0.00979  0.59396  Biso   1.000  H
  H1869      1.0000 0.59396  0.96385  0.52297  Biso   1.000  H
  H1870      1.0000 0.64945  0.00979  0.47703  Biso   1.000  H
  H1871      1.0000 0.52297  0.08078  0.47703  Biso   1.000  H
  O1872      1.0000 0.51363  0.97319  0.20636  Biso   1.000  O
  C1873      1.0000 0.50000  0.98682  0.19732  Biso   1.000  C
  C1874      1.0000 0.50000  0.98682  0.17241  Biso   1.000  C
  S1875      1.0000 0.48749  0.99933  0.15795  Biso   1.000  S
  O1876      1.0000 0.48637  0.00045  0.20636  Biso   1.000  O
  C1877      1.0000 0.51251  0.97431  0.15795  Biso   1.000  C
  H1878      1.0000 0.52297  0.96385  0.16262  Biso   1.000  H
  H1879      1.0000 0.47703  0.64945  0.52296  Biso   1.000  H
  H1880      1.0000 0.52297  0.96385  0.59396  Biso   1.000  H
  H1881      1.0000 0.40604  0.00979  0.52297  Biso   1.000  H
  H1882      1.0000 0.47703  0.89285  0.47703  Biso   1.000  H
  H1883      1.0000 0.52297  0.83737  0.52297  Biso   1.000  H
  H1884      1.0000 0.83737  0.96385  0.47703  Biso   1.000  H
  Zn1885      1.0000 0.99450  0.48132  0.96813  Biso   1.000  Zn
  O1886      1.0000 0.01318  0.50000  0.98681  Biso   1.000  O
  O1887      1.0000 0.99956  0.48637  0.93659  Biso   1.000  O
  C1888      1.0000 0.01318  0.50000  0.92755  Biso   1.000  C
  C1889      1.0000 0.01318  0.50000  0.90264  Biso   1.000  C
  S1890      1.0000 0.02569  0.51251  0.88818  Biso   1.000  S
  C1891      1.0000 0.02124  0.50806  0.86511  Biso   1.000  C
  O1892      1.0000 0.02681  0.51363  0.79363  Biso   1.000  O
  C1893      1.0000 0.01318  0.50000  0.80267  Biso   1.000  C
  C1894      1.0000 0.01318  0.50000  0.82758  Biso   1.000  C
  S1895      1.0000 0.00067  0.48749  0.84204  Biso   1.000  S
  C1896      1.0000 0.00513  0.49194  0.86511  Biso   1.000  C
  O1897      1.0000 0.02681  0.51363  0.93659  Biso   1.000  O
  C1898      1.0000 0.00067  0.48749  0.88818  Biso   1.000  C
  H1899      1.0000 0.99021  0.47703  0.89285  Biso   1.000  H
  O1900      1.0000 0.99956  0.48637  0.79363  Biso   1.000  O
  C1901      1.0000 0.02569  0.51251  0.84204  Biso   1.000  C
  H1902      1.0000 0.03615  0.52297  0.83737  Biso   1.000  H
  Zn1903      1.0000 0.03187  0.51868  0.96813  Biso   1.000  Zn
  O1904      1.0000 0.06341  0.51363  0.97318  Biso   1.000  O
  C1905      1.0000 0.07245  0.50000  0.98681  Biso   1.000  C
  C1906      1.0000 0.09736  0.50000  0.98681  Biso   1.000  C
  S1907      1.0000 0.11182  0.48749  0.99932  Biso   1.000  S
  C1908      1.0000 0.13489  0.49194  0.99487  Biso   1.000  C
  O1909      1.0000 0.20637  0.48637  0.00044  Biso   1.000  O
  C1910      1.0000 0.19732  0.50000  0.98681  Biso   1.000  C
  C1911      1.0000 0.17242  0.50000  0.98681  Biso   1.000  C
  S1912      1.0000 0.15796  0.51251  0.97430  Biso   1.000  S
  C1913      1.0000 0.13489  0.50806  0.97876  Biso   1.000  C
  O1914      1.0000 0.06341  0.48637  0.00044  Biso   1.000  O
  C1915      1.0000 0.11182  0.51251  0.97430  Biso   1.000  C
  H1916      1.0000 0.10715  0.52297  0.96384  Biso   1.000  H
  O1917      1.0000 0.20637  0.51363  0.97318  Biso   1.000  O
  C1918      1.0000 0.15796  0.48749  0.99932  Biso   1.000  C
  H1919      1.0000 0.16263  0.47703  0.00978  Biso   1.000  H
  Zn1920      1.0000 0.03187  0.48132  0.00550  Biso   1.000  Zn
  O1921      1.0000 0.02681  0.44977  0.00044  Biso   1.000  O
  C1922      1.0000 0.01318  0.44073  0.98681  Biso   1.000  C
  C1923      1.0000 0.01318  0.41583  0.98681  Biso   1.000  C
  S1924      1.0000 0.00067  0.40137  0.97430  Biso   1.000  S
  C1925      1.0000 0.00513  0.37830  0.97876  Biso   1.000  C
  O1926      1.0000 0.99956  0.30682  0.97318  Biso   1.000  O
  C1927      1.0000 0.01318  0.31586  0.98681  Biso   1.000  C
  C1928      1.0000 0.01318  0.34076  0.98681  Biso   1.000  C
  S1929      1.0000 0.02569  0.35523  0.99932  Biso   1.000  S
  C1930      1.0000 0.02124  0.37830  0.99487  Biso   1.000  C
  O1931      1.0000 0.99956  0.44977  0.97318  Biso   1.000  O
  C1932      1.0000 0.02569  0.40137  0.99932  Biso   1.000  C
  H1933      1.0000 0.03615  0.40604  0.00978  Biso   1.000  H
  O1934      1.0000 0.02681  0.30682  0.00044  Biso   1.000  O
  C1935      1.0000 0.00067  0.35523  0.97430  Biso   1.000  C
  H1936      1.0000 0.99021  0.35056  0.96384  Biso   1.000  H
  Zn1937      1.0000 0.99450  0.48132  0.76209  Biso   1.000  Zn
  Zn1938      1.0000 0.99450  0.27527  0.96813  Biso   1.000  Zn
  Zn1939      1.0000 0.23791  0.48132  0.00550  Biso   1.000  Zn
  Zn1940      1.0000 0.03187  0.27527  0.00550  Biso   1.000  Zn
  Zn1941      1.0000 0.23791  0.51868  0.96813  Biso   1.000  Zn
  Zn1942      1.0000 0.03187  0.51868  0.76209  Biso   1.000  Zn
  Zn1943      1.0000 0.99450  0.51868  0.00550  Biso   1.000  Zn
  O1944      1.0000 0.01318  0.50000  0.74340  Biso   1.000  O
  O1945      1.0000 0.99956  0.44977  0.75703  Biso   1.000  O
  O1946      1.0000 0.02681  0.48637  0.03704  Biso   1.000  O
  O1947      1.0000 0.96296  0.48637  0.75703  Biso   1.000  O
  O1948      1.0000 0.96296  0.48637  0.97318  Biso   1.000  O
  O1949      1.0000 0.02681  0.55023  0.97318  Biso   1.000  O
  C1950      1.0000 0.26465  0.50806  0.62170  Biso   1.000  C
  O1951      1.0000 0.27022  0.51363  0.03704  Biso   1.000  O
  C1952      1.0000 0.25659  0.50000  0.04608  Biso   1.000  C
  C1953      1.0000 0.25659  0.50000  0.07099  Biso   1.000  C
  S1954      1.0000 0.24408  0.48749  0.08545  Biso   1.000  S
  C1955      1.0000 0.24854  0.49194  0.62170  Biso   1.000  C
  O1956      1.0000 0.24296  0.48637  0.03704  Biso   1.000  O
  C1957      1.0000 0.26910  0.51251  0.08545  Biso   1.000  C
  H1958      1.0000 0.27956  0.52297  0.08078  Biso   1.000  H
  Zn1959      1.0000 0.27527  0.51868  0.00550  Biso   1.000  Zn
  O1960      1.0000 0.25659  0.50000  0.98681  Biso   1.000  O
  O1961      1.0000 0.24296  0.44977  0.00044  Biso   1.000  O
  C1962      1.0000 0.89148  0.49194  0.75146  Biso   1.000  C
  C1963      1.0000 0.95392  0.50000  0.74340  Biso   1.000  C
  C1964      1.0000 0.92901  0.50000  0.74340  Biso   1.000  C
  S1965      1.0000 0.91455  0.51251  0.73089  Biso   1.000  S
  C1966      1.0000 0.89148  0.50806  0.73535  Biso   1.000  C
  O1967      1.0000 0.96296  0.51363  0.72978  Biso   1.000  O
  C1968      1.0000 0.91455  0.48749  0.75591  Biso   1.000  C
  H1969      1.0000 0.91922  0.47703  0.76637  Biso   1.000  H
  Zn1970      1.0000 0.99450  0.51868  0.72472  Biso   1.000  Zn
  Zn1971      1.0000 0.23791  0.48132  0.72472  Biso   1.000  Zn
  O1972      1.0000 0.25659  0.50000  0.74340  Biso   1.000  O
  O1973      1.0000 0.24296  0.48637  0.69318  Biso   1.000  O
  C1974      1.0000 0.25659  0.50000  0.68414  Biso   1.000  C
  C1975      1.0000 0.25659  0.50000  0.65923  Biso   1.000  C
  S1976      1.0000 0.26910  0.51251  0.64477  Biso   1.000  S
  O1977      1.0000 0.27022  0.51363  0.69318  Biso   1.000  O
  C1978      1.0000 0.24408  0.48749  0.64477  Biso   1.000  C
  H1979      1.0000 0.23362  0.47703  0.64944  Biso   1.000  H
  Zn1980      1.0000 0.27527  0.51868  0.72472  Biso   1.000  Zn
  O1981      1.0000 0.30682  0.51363  0.72978  Biso   1.000  O
  C1982      1.0000 0.31586  0.50000  0.74340  Biso   1.000  C
  C1983      1.0000 0.34076  0.50000  0.74340  Biso   1.000  C
  S1984      1.0000 0.35523  0.48749  0.75591  Biso   1.000  S
  O1985      1.0000 0.30682  0.48637  0.75703  Biso   1.000  O
  C1986      1.0000 0.35523  0.51251  0.73089  Biso   1.000  C
  H1987      1.0000 0.35056  0.52297  0.72043  Biso   1.000  H
  Zn1988      1.0000 0.27527  0.48132  0.76209  Biso   1.000  Zn
  O1989      1.0000 0.27022  0.44977  0.75703  Biso   1.000  O
  C1990      1.0000 0.25659  0.44073  0.74340  Biso   1.000  C
  C1991      1.0000 0.25659  0.41583  0.74340  Biso   1.000  C
  S1992      1.0000 0.24408  0.40137  0.73089  Biso   1.000  S
  C1993      1.0000 0.24854  0.37830  0.73535  Biso   1.000  C
  O1994      1.0000 0.24296  0.30682  0.72978  Biso   1.000  O
  C1995      1.0000 0.25659  0.31586  0.74340  Biso   1.000  C
  C1996      1.0000 0.25659  0.34076  0.74340  Biso   1.000  C
  S1997      1.0000 0.26910  0.35523  0.75591  Biso   1.000  S
  C1998      1.0000 0.26465  0.37830  0.75146  Biso   1.000  C
  O1999      1.0000 0.24296  0.44977  0.72978  Biso   1.000  O
  C2000      1.0000 0.26910  0.40137  0.75591  Biso   1.000  C
  H2001      1.0000 0.27956  0.40604  0.76637  Biso   1.000  H
  O2002      1.0000 0.27022  0.30682  0.75703  Biso   1.000  O
  C2003      1.0000 0.24408  0.35523  0.73089  Biso   1.000  C
  H2004      1.0000 0.23362  0.35056  0.72043  Biso   1.000  H
  Zn2005      1.0000 0.23791  0.27527  0.72472  Biso   1.000  Zn
  Zn2006      1.0000 0.27527  0.27527  0.76209  Biso   1.000  Zn
  Zn2007      1.0000 0.23791  0.51868  0.76209  Biso   1.000  Zn
  O2008      1.0000 0.27022  0.48637  0.79363  Biso   1.000  O
  O2009      1.0000 0.20637  0.48637  0.72978  Biso   1.000  O
  O2010      1.0000 0.27022  0.55023  0.72978  Biso   1.000  O
  C2011      1.0000 0.24854  0.13489  0.97876  Biso   1.000  C
  O2012      1.0000 0.24296  0.55023  0.97318  Biso   1.000  O
  C2013      1.0000 0.25659  0.55927  0.98681  Biso   1.000  C
  C2014      1.0000 0.25659  0.58417  0.98681  Biso   1.000  C
  S2015      1.0000 0.26910  0.59863  0.99932  Biso   1.000  S
  C2016      1.0000 0.26465  0.13489  0.99487  Biso   1.000  C
  O2017      1.0000 0.27022  0.55023  0.00044  Biso   1.000  O
  C2018      1.0000 0.24408  0.59863  0.97430  Biso   1.000  C
  H2019      1.0000 0.23362  0.59396  0.96384  Biso   1.000  H
  C2020      1.0000 0.89148  0.24853  0.99487  Biso   1.000  C
  O2021      1.0000 0.96296  0.24296  0.00044  Biso   1.000  O
  C2022      1.0000 0.95392  0.25659  0.98681  Biso   1.000  C
  C2023      1.0000 0.92901  0.25659  0.98681  Biso   1.000  C
  S2024      1.0000 0.91455  0.26910  0.97430  Biso   1.000  S
  C2025      1.0000 0.89148  0.26465  0.97876  Biso   1.000  C
  O2026      1.0000 0.96296  0.27022  0.97318  Biso   1.000  O
  C2027      1.0000 0.91455  0.24408  0.99932  Biso   1.000  C
  H2028      1.0000 0.91922  0.23362  0.00978  Biso   1.000  H
  Zn2029      1.0000 0.99450  0.23791  0.00550  Biso   1.000  Zn
  Zn2030      1.0000 0.23791  0.23791  0.96813  Biso   1.000  Zn
  O2031      1.0000 0.25659  0.25659  0.98681  Biso   1.000  O
  O2032      1.0000 0.24296  0.24296  0.93659  Biso   1.000  O
  C2033      1.0000 0.25659  0.25659  0.92755  Biso   1.000  C
  C2034      1.0000 0.25659  0.25659  0.90264  Biso   1.000  C
  S2035      1.0000 0.26910  0.26910  0.88818  Biso   1.000  S
  C2036      1.0000 0.26465  0.26465  0.86511  Biso   1.000  C
  O2037      1.0000 0.27022  0.27022  0.79363  Biso   1.000  O
  C2038      1.0000 0.25659  0.25659  0.80267  Biso   1.000  C
  C2039      1.0000 0.25659  0.25659  0.82758  Biso   1.000  C
  S2040      1.0000 0.24408  0.24408  0.84204  Biso   1.000  S
  C2041      1.0000 0.24854  0.24853  0.86511  Biso   1.000  C
  O2042      1.0000 0.27022  0.27022  0.93659  Biso   1.000  O
  C2043      1.0000 0.24408  0.24408  0.88818  Biso   1.000  C
  H2044      1.0000 0.23362  0.23362  0.89285  Biso   1.000  H
  O2045      1.0000 0.24296  0.24296  0.79363  Biso   1.000  O
  C2046      1.0000 0.26910  0.26910  0.84204  Biso   1.000  C
  H2047      1.0000 0.27956  0.27956  0.83737  Biso   1.000  H
  Zn2048      1.0000 0.27527  0.27527  0.96813  Biso   1.000  Zn
  O2049      1.0000 0.30682  0.27022  0.97318  Biso   1.000  O
  C2050      1.0000 0.31586  0.25659  0.98681  Biso   1.000  C
  C2051      1.0000 0.34076  0.25659  0.98681  Biso   1.000  C
  S2052      1.0000 0.35523  0.24408  0.99932  Biso   1.000  S
  O2053      1.0000 0.30682  0.24296  0.00044  Biso   1.000  O
  C2054      1.0000 0.35523  0.26910  0.97430  Biso   1.000  C
  H2055      1.0000 0.35056  0.27956  0.96384  Biso   1.000  H
  Zn2056      1.0000 0.27527  0.23791  0.00550  Biso   1.000  Zn
  O2057      1.0000 0.27022  0.20637  0.00044  Biso   1.000  O
  C2058      1.0000 0.25659  0.19732  0.98681  Biso   1.000  C
  C2059      1.0000 0.25659  0.17242  0.98681  Biso   1.000  C
  S2060      1.0000 0.24408  0.15796  0.97430  Biso   1.000  S
  O2061      1.0000 0.24296  0.20637  0.97318  Biso   1.000  O
  C2062      1.0000 0.26910  0.15796  0.99932  Biso   1.000  C
  H2063      1.0000 0.27956  0.16263  0.00978  Biso   1.000  H
  Zn2064      1.0000 0.23791  0.23791  0.76209  Biso   1.000  Zn
  Zn2065      1.0000 0.23791  0.27527  0.00550  Biso   1.000  Zn
  O2066      1.0000 0.25659  0.25659  0.74340  Biso   1.000  O
  O2067      1.0000 0.24296  0.20637  0.75703  Biso   1.000  O
  O2068      1.0000 0.27022  0.24296  0.03704  Biso   1.000  O
  O2069      1.0000 0.20637  0.24296  0.75703  Biso   1.000  O
  O2070      1.0000 0.20637  0.24296  0.97318  Biso   1.000  O
  O2071      1.0000 0.27022  0.30682  0.97318  Biso   1.000  O
  C2072      1.0000 0.00513  0.13489  0.73535  Biso   1.000  C
  O2073      1.0000 0.99956  0.55023  0.72978  Biso   1.000  O
  C2074      1.0000 0.01318  0.55927  0.74340  Biso   1.000  C
  C2075      1.0000 0.01318  0.58417  0.74340  Biso   1.000  C
  S2076      1.0000 0.02569  0.59863  0.75591  Biso   1.000  S
  C2077      1.0000 0.02124  0.13489  0.75146  Biso   1.000  C
  O2078      1.0000 0.02681  0.55023  0.75703  Biso   1.000  O
  C2079      1.0000 0.00067  0.59863  0.73089  Biso   1.000  C
  H2080      1.0000 0.99021  0.59396  0.72043  Biso   1.000  H
  C2081      1.0000 0.02124  0.26465  0.62170  Biso   1.000  C
  O2082      1.0000 0.02681  0.27022  0.03704  Biso   1.000  O
  C2083      1.0000 0.01318  0.25659  0.04608  Biso   1.000  C
  C2084      1.0000 0.01318  0.25659  0.07099  Biso   1.000  C
  S2085      1.0000 0.00067  0.24408  0.08545  Biso   1.000  S
  C2086      1.0000 0.00513  0.24853  0.62170  Biso   1.000  C
  O2087      1.0000 0.99956  0.24296  0.03704  Biso   1.000  O
  C2088      1.0000 0.02569  0.26910  0.08545  Biso   1.000  C
  H2089      1.0000 0.03615  0.27956  0.08078  Biso   1.000  H
  O2090      1.0000 0.01318  0.25659  0.98681  Biso   1.000  O
  O2091      1.0000 0.99956  0.20637  0.00044  Biso   1.000  O
  Zn2092      1.0000 0.99450  0.23791  0.72472  Biso   1.000  Zn
  O2093      1.0000 0.01318  0.25659  0.74340  Biso   1.000  O
  O2094      1.0000 0.99956  0.24296  0.69318  Biso   1.000  O
  C2095      1.0000 0.01318  0.25659  0.68414  Biso   1.000  C
  C2096      1.0000 0.01318  0.25659  0.65923  Biso   1.000  C
  S2097      1.0000 0.02569  0.26910  0.64477  Biso   1.000  S
  O2098      1.0000 0.02681  0.27022  0.69318  Biso   1.000  O
  C2099      1.0000 0.00067  0.24408  0.64477  Biso   1.000  C
  H2100      1.0000 0.99021  0.23362  0.64944  Biso   1.000  H
  Zn2101      1.0000 0.03187  0.27527  0.72472  Biso   1.000  Zn
  O2102      1.0000 0.06341  0.27022  0.72978  Biso   1.000  O
  C2103      1.0000 0.07245  0.25659  0.74340  Biso   1.000  C
  C2104      1.0000 0.09736  0.25659  0.74340  Biso   1.000  C
  S2105      1.0000 0.11182  0.24408  0.75591  Biso   1.000  S
  C2106      1.0000 0.13489  0.24853  0.75146  Biso   1.000  C
  C2107      1.0000 0.19732  0.25659  0.74340  Biso   1.000  C
  C2108      1.0000 0.17242  0.25659  0.74340  Biso   1.000  C
  S2109      1.0000 0.15796  0.26910  0.73089  Biso   1.000  S
  C2110      1.0000 0.13489  0.26465  0.73535  Biso   1.000  C
  O2111      1.0000 0.06341  0.24296  0.75703  Biso   1.000  O
  C2112      1.0000 0.11182  0.26910  0.73089  Biso   1.000  C
  H2113      1.0000 0.10715  0.27956  0.72043  Biso   1.000  H
  O2114      1.0000 0.20637  0.27022  0.72978  Biso   1.000  O
  C2115      1.0000 0.15796  0.24408  0.75591  Biso   1.000  C
  H2116      1.0000 0.16263  0.23362  0.76637  Biso   1.000  H
  Zn2117      1.0000 0.03187  0.23791  0.76209  Biso   1.000  Zn
  O2118      1.0000 0.02681  0.20637  0.75703  Biso   1.000  O
  C2119      1.0000 0.01318  0.19732  0.74340  Biso   1.000  C
  C2120      1.0000 0.01318  0.17242  0.74340  Biso   1.000  C
  S2121      1.0000 0.00067  0.15796  0.73089  Biso   1.000  S
  O2122      1.0000 0.99956  0.20637  0.72978  Biso   1.000  O
  C2123      1.0000 0.02569  0.15796  0.75591  Biso   1.000  C
  H2124      1.0000 0.03615  0.16263  0.76637  Biso   1.000  H
  Zn2125      1.0000 0.99450  0.27527  0.76209  Biso   1.000  Zn
  O2126      1.0000 0.02681  0.24296  0.79363  Biso   1.000  O
  O2127      1.0000 0.96296  0.24296  0.72978  Biso   1.000  O
  O2128      1.0000 0.02681  0.30682  0.72978  Biso   1.000  O
  H2129      1.0000 0.27956  0.27956  0.89285  Biso   1.000  H
  H2130      1.0000 0.23362  0.23362  0.83737  Biso   1.000  H
  C2131      1.0000 0.19732  0.25659  0.98681  Biso   1.000  C
  C2132      1.0000 0.17242  0.25659  0.98681  Biso   1.000  C
  S2133      1.0000 0.15796  0.26910  0.99932  Biso   1.000  S
  C2134      1.0000 0.13489  0.26465  0.99487  Biso   1.000  C
  O2135      1.0000 0.06341  0.27022  0.00044  Biso   1.000  O
  C2136      1.0000 0.07245  0.25659  0.98681  Biso   1.000  C
  C2137      1.0000 0.09736  0.25659  0.98681  Biso   1.000  C
  S2138      1.0000 0.11182  0.24408  0.97430  Biso   1.000  S
  C2139      1.0000 0.13489  0.24853  0.97876  Biso   1.000  C
  O2140      1.0000 0.20637  0.27022  0.00044  Biso   1.000  O
  C2141      1.0000 0.15796  0.24408  0.97430  Biso   1.000  C
  H2142      1.0000 0.16263  0.23362  0.96384  Biso   1.000  H
  O2143      1.0000 0.06341  0.24296  0.97318  Biso   1.000  O
  C2144      1.0000 0.11182  0.26910  0.99932  Biso   1.000  C
  H2145      1.0000 0.10715  0.27956  0.00978  Biso   1.000  H
  O2146      1.0000 0.24296  0.30682  0.00044  Biso   1.000  O
  C2147      1.0000 0.25659  0.31586  0.98681  Biso   1.000  C
  C2148      1.0000 0.25659  0.34076  0.98681  Biso   1.000  C
  S2149      1.0000 0.26910  0.35523  0.97430  Biso   1.000  S
  C2150      1.0000 0.26465  0.37830  0.97876  Biso   1.000  C
  O2151      1.0000 0.27022  0.44977  0.97318  Biso   1.000  O
  C2152      1.0000 0.25659  0.44073  0.98681  Biso   1.000  C
  C2153      1.0000 0.25659  0.41583  0.98681  Biso   1.000  C
  S2154      1.0000 0.24408  0.40137  0.99932  Biso   1.000  S
  C2155      1.0000 0.24854  0.37830  0.99487  Biso   1.000  C
  C2156      1.0000 0.24408  0.35523  0.99932  Biso   1.000  C
  H2157      1.0000 0.23362  0.35056  0.00978  Biso   1.000  H
  C2158      1.0000 0.26910  0.40137  0.97430  Biso   1.000  C
  H2159      1.0000 0.27956  0.40604  0.96384  Biso   1.000  H
  Zn2160      1.0000 0.27527  0.48132  0.96813  Biso   1.000  Zn
  Zn2161      1.0000 0.03187  0.23791  0.96813  Biso   1.000  Zn
  O2162      1.0000 0.24296  0.27022  0.03704  Biso   1.000  O
  O2163      1.0000 0.30682  0.27022  0.75703  Biso   1.000  O
  O2164      1.0000 0.99956  0.27022  0.79363  Biso   1.000  O
  C2165      1.0000 0.01318  0.25659  0.80267  Biso   1.000  C
  C2166      1.0000 0.01318  0.25659  0.82758  Biso   1.000  C
  S2167      1.0000 0.02569  0.24408  0.84204  Biso   1.000  S
  C2168      1.0000 0.02124  0.24853  0.86511  Biso   1.000  C
  O2169      1.0000 0.02681  0.24296  0.93659  Biso   1.000  O
  C2170      1.0000 0.01318  0.25659  0.92755  Biso   1.000  C
  C2171      1.0000 0.01318  0.25659  0.90264  Biso   1.000  C
  S2172      1.0000 0.00067  0.26910  0.88818  Biso   1.000  S
  C2173      1.0000 0.00513  0.26465  0.86511  Biso   1.000  C
  C2174      1.0000 0.00067  0.26910  0.84204  Biso   1.000  C
  H2175      1.0000 0.99021  0.27956  0.83737  Biso   1.000  H
  O2176      1.0000 0.99956  0.27022  0.93659  Biso   1.000  O
  C2177      1.0000 0.02569  0.24408  0.88818  Biso   1.000  C
  H2178      1.0000 0.03615  0.23362  0.89285  Biso   1.000  H
  H2179      1.0000 0.10715  0.23362  0.76637  Biso   1.000  H
  H2180      1.0000 0.16263  0.27956  0.72043  Biso   1.000  H
  C2181      1.0000 0.01318  0.31586  0.74340  Biso   1.000  C
  C2182      1.0000 0.01318  0.34076  0.74340  Biso   1.000  C
  S2183      1.0000 0.00067  0.35523  0.75591  Biso   1.000  S
  C2184      1.0000 0.00513  0.37830  0.75146  Biso   1.000  C
  C2185      1.0000 0.01318  0.44073  0.74340  Biso   1.000  C
  C2186      1.0000 0.01318  0.41583  0.74340  Biso   1.000  C
  S2187      1.0000 0.02569  0.40137  0.73089  Biso   1.000  S
  C2188      1.0000 0.02124  0.37830  0.73535  Biso   1.000  C
  O2189      1.0000 0.99956  0.30682  0.75703  Biso   1.000  O
  C2190      1.0000 0.02569  0.35523  0.73089  Biso   1.000  C
  H2191      1.0000 0.03615  0.35056  0.72043  Biso   1.000  H
  O2192      1.0000 0.02681  0.44977  0.72978  Biso   1.000  O
  C2193      1.0000 0.00067  0.40137  0.75591  Biso   1.000  C
  H2194      1.0000 0.99021  0.40604  0.76637  Biso   1.000  H
  Zn2195      1.0000 0.03187  0.48132  0.72472  Biso   1.000  Zn
  O2196      1.0000 0.96296  0.27022  0.75703  Biso   1.000  O
  H2197      1.0000 0.03615  0.52297  0.89285  Biso   1.000  H
  H2198      1.0000 0.99021  0.47703  0.83737  Biso   1.000  H
  C2199      1.0000 0.95392  0.50000  0.98681  Biso   1.000  C
  C2200      1.0000 0.92901  0.50000  0.98681  Biso   1.000  C
  S2201      1.0000 0.91455  0.51251  0.99932  Biso   1.000  S
  C2202      1.0000 0.89148  0.50806  0.99487  Biso   1.000  C
  C2203      1.0000 0.89148  0.49194  0.97876  Biso   1.000  C
  O2204      1.0000 0.96296  0.51363  0.00044  Biso   1.000  O
  C2205      1.0000 0.91455  0.48749  0.97430  Biso   1.000  C
  H2206      1.0000 0.91922  0.47703  0.96384  Biso   1.000  H
  O2207      1.0000 0.99956  0.55023  0.00044  Biso   1.000  O
  C2208      1.0000 0.01318  0.55927  0.98681  Biso   1.000  C
  C2209      1.0000 0.01318  0.58417  0.98681  Biso   1.000  C
  S2210      1.0000 0.02569  0.59863  0.97430  Biso   1.000  S
  C2211      1.0000 0.02124  0.13489  0.97876  Biso   1.000  C
  C2212      1.0000 0.00513  0.13489  0.99487  Biso   1.000  C
  C2213      1.0000 0.00067  0.59863  0.99932  Biso   1.000  C
  H2214      1.0000 0.99021  0.59396  0.00978  Biso   1.000  H
  O2215      1.0000 0.99956  0.51363  0.03704  Biso   1.000  O
  O2216      1.0000 0.06341  0.51363  0.75703  Biso   1.000  O
  O2217      1.0000 0.30682  0.51363  0.00044  Biso   1.000  O
  C2218      1.0000 0.31586  0.50000  0.98681  Biso   1.000  C
  C2219      1.0000 0.34076  0.50000  0.98681  Biso   1.000  C
  S2220      1.0000 0.35523  0.48749  0.97430  Biso   1.000  S
  O2221      1.0000 0.30682  0.48637  0.97318  Biso   1.000  O
  C2222      1.0000 0.35523  0.51251  0.99932  Biso   1.000  C
  H2223      1.0000 0.35056  0.52297  0.00978  Biso   1.000  H
  O2224      1.0000 0.02681  0.20637  0.97318  Biso   1.000  O
  C2225      1.0000 0.01318  0.19732  0.98681  Biso   1.000  C
  C2226      1.0000 0.01318  0.17242  0.98681  Biso   1.000  C
  S2227      1.0000 0.00067  0.15796  0.99932  Biso   1.000  S
  C2228      1.0000 0.02569  0.15796  0.97430  Biso   1.000  C
  H2229      1.0000 0.03615  0.16263  0.96384  Biso   1.000  H
  C2230      1.0000 0.25659  0.50000  0.80267  Biso   1.000  C
  C2231      1.0000 0.25659  0.50000  0.82758  Biso   1.000  C
  S2232      1.0000 0.24408  0.51251  0.84204  Biso   1.000  S
  C2233      1.0000 0.24854  0.50806  0.86511  Biso   1.000  C
  O2234      1.0000 0.24296  0.51363  0.93659  Biso   1.000  O
  C2235      1.0000 0.25659  0.50000  0.92755  Biso   1.000  C
  C2236      1.0000 0.25659  0.50000  0.90264  Biso   1.000  C
  S2237      1.0000 0.26910  0.48749  0.88818  Biso   1.000  S
  C2238      1.0000 0.26465  0.49194  0.86511  Biso   1.000  C
  O2239      1.0000 0.24296  0.51363  0.79363  Biso   1.000  O
  C2240      1.0000 0.26910  0.48749  0.84204  Biso   1.000  C
  H2241      1.0000 0.27956  0.47703  0.83737  Biso   1.000  H
  O2242      1.0000 0.27022  0.48637  0.93659  Biso   1.000  O
  C2243      1.0000 0.24408  0.51251  0.88818  Biso   1.000  C
  H2244      1.0000 0.23362  0.52297  0.89285  Biso   1.000  H
  O2245      1.0000 0.20637  0.51363  0.75703  Biso   1.000  O
  C2246      1.0000 0.19732  0.50000  0.74340  Biso   1.000  C
  C2247      1.0000 0.17242  0.50000  0.74340  Biso   1.000  C
  S2248      1.0000 0.15796  0.48749  0.73089  Biso   1.000  S
  C2249      1.0000 0.13489  0.49194  0.73535  Biso   1.000  C
  O2250      1.0000 0.06341  0.48637  0.72978  Biso   1.000  O
  C2251      1.0000 0.07245  0.50000  0.74340  Biso   1.000  C
  C2252      1.0000 0.09736  0.50000  0.74340  Biso   1.000  C
  S2253      1.0000 0.11182  0.51251  0.75591  Biso   1.000  S
  C2254      1.0000 0.13489  0.50806  0.75146  Biso   1.000  C
  C2255      1.0000 0.15796  0.51251  0.75591  Biso   1.000  C
  H2256      1.0000 0.16263  0.52297  0.76637  Biso   1.000  H
  C2257      1.0000 0.11182  0.48749  0.73089  Biso   1.000  C
  H2258      1.0000 0.10715  0.47703  0.72043  Biso   1.000  H
  H2259      1.0000 0.23362  0.40604  0.72043  Biso   1.000  H
  H2260      1.0000 0.27956  0.35056  0.76637  Biso   1.000  H
  O2261      1.0000 0.24296  0.55023  0.75703  Biso   1.000  O
  H2262      1.0000 0.91922  0.52297  0.72043  Biso   1.000  H
  H2263      1.0000 0.23362  0.52297  0.83737  Biso   1.000  H
  H2264      1.0000 0.27956  0.47703  0.89285  Biso   1.000  H
  H2265      1.0000 0.35056  0.47703  0.76637  Biso   1.000  H
  C2266      1.0000 0.25659  0.55927  0.74340  Biso   1.000  C
  C2267      1.0000 0.25659  0.58417  0.74340  Biso   1.000  C
  S2268      1.0000 0.24408  0.59863  0.75591  Biso   1.000  S
  C2269      1.0000 0.24854  0.13489  0.75146  Biso   1.000  C
  C2270      1.0000 0.26465  0.13489  0.73535  Biso   1.000  C
  C2271      1.0000 0.26910  0.59863  0.73089  Biso   1.000  C
  H2272      1.0000 0.27956  0.59396  0.72043  Biso   1.000  H
  C2273      1.0000 0.25659  0.19732  0.74340  Biso   1.000  C
  C2274      1.0000 0.25659  0.17242  0.74340  Biso   1.000  C
  S2275      1.0000 0.26910  0.15796  0.73089  Biso   1.000  S
  O2276      1.0000 0.27022  0.20637  0.72978  Biso   1.000  O
  C2277      1.0000 0.24408  0.15796  0.75591  Biso   1.000  C
  H2278      1.0000 0.23362  0.16263  0.76637  Biso   1.000  H
  Zn2279      1.0000 0.27527  0.23791  0.72472  Biso   1.000  Zn
  H2280      1.0000 0.91922  0.27956  0.96384  Biso   1.000  H
  C2281      1.0000 0.25659  0.25659  0.04608  Biso   1.000  C
  C2282      1.0000 0.25659  0.25659  0.07099  Biso   1.000  C
  S2283      1.0000 0.26910  0.24408  0.08545  Biso   1.000  S
  C2284      1.0000 0.26465  0.24853  0.62170  Biso   1.000  C
  C2285      1.0000 0.24854  0.26465  0.62170  Biso   1.000  C
  C2286      1.0000 0.24408  0.26910  0.08545  Biso   1.000  C
  H2287      1.0000 0.23362  0.27956  0.08078  Biso   1.000  H
  H2288      1.0000 0.35056  0.23362  0.00978  Biso   1.000  H
  H2289      1.0000 0.27956  0.35056  0.96384  Biso   1.000  H
  H2290      1.0000 0.23362  0.40604  0.00978  Biso   1.000  H
  O2291      1.0000 0.27022  0.24296  0.69318  Biso   1.000  O
  C2292      1.0000 0.25659  0.25659  0.68414  Biso   1.000  C
  C2293      1.0000 0.25659  0.25659  0.65923  Biso   1.000  C
  S2294      1.0000 0.24408  0.26910  0.64477  Biso   1.000  S
  O2295      1.0000 0.24296  0.27022  0.69318  Biso   1.000  O
  C2296      1.0000 0.26910  0.24408  0.64477  Biso   1.000  C
  H2297      1.0000 0.27956  0.23362  0.64944  Biso   1.000  H
  H2298      1.0000 0.99021  0.23362  0.08078  Biso   1.000  H
  H2299      1.0000 0.03615  0.27956  0.64944  Biso   1.000  H
  C2300      1.0000 0.95392  0.25659  0.74340  Biso   1.000  C
  C2301      1.0000 0.92901  0.25659  0.74340  Biso   1.000  C
  S2302      1.0000 0.91455  0.26910  0.75591  Biso   1.000  S
  C2303      1.0000 0.89148  0.26465  0.75146  Biso   1.000  C
  C2304      1.0000 0.89148  0.24853  0.73535  Biso   1.000  C
  C2305      1.0000 0.91455  0.24408  0.73089  Biso   1.000  C
  H2306      1.0000 0.91922  0.23362  0.72043  Biso   1.000  H
  H2307      1.0000 0.99021  0.35056  0.76637  Biso   1.000  H
  H2308      1.0000 0.03615  0.40604  0.72043  Biso   1.000  H
  C2309      1.0000 0.31586  0.25659  0.74340  Biso   1.000  C
  C2310      1.0000 0.34076  0.25659  0.74340  Biso   1.000  C
  S2311      1.0000 0.35523  0.24408  0.73089  Biso   1.000  S
  O2312      1.0000 0.30682  0.24296  0.72978  Biso   1.000  O
  C2313      1.0000 0.35523  0.26910  0.75591  Biso   1.000  C
  H2314      1.0000 0.35056  0.27956  0.76637  Biso   1.000  H
  H2315      1.0000 0.23362  0.47703  0.08078  Biso   1.000  H
  H2316      1.0000 0.27956  0.52297  0.64944  Biso   1.000  H
  H2317      1.0000 0.16263  0.47703  0.72043  Biso   1.000  H
  H2318      1.0000 0.10715  0.52297  0.76637  Biso   1.000  H
  H2319      1.0000 0.23362  0.59396  0.76637  Biso   1.000  H
  H2320      1.0000 0.27956  0.16263  0.72043  Biso   1.000  H
  H2321      1.0000 0.27956  0.59396  0.00978  Biso   1.000  H
  H2322      1.0000 0.27956  0.23362  0.08078  Biso   1.000  H
  H2323      1.0000 0.16263  0.27956  0.00978  Biso   1.000  H
  H2324      1.0000 0.10715  0.23362  0.96384  Biso   1.000  H
  H2325      1.0000 0.23362  0.16263  0.96384  Biso   1.000  H
  H2326      1.0000 0.23362  0.27956  0.64944  Biso   1.000  H
  H2327      1.0000 0.03615  0.59396  0.76637  Biso   1.000  H
  H2328      1.0000 0.03615  0.23362  0.83737  Biso   1.000  H
  H2329      1.0000 0.99021  0.27956  0.89285  Biso   1.000  H
  H2330      1.0000 0.91922  0.27956  0.76637  Biso   1.000  H
  H2331      1.0000 0.99021  0.16263  0.72043  Biso   1.000  H
  H2332      1.0000 0.35056  0.23362  0.72043  Biso   1.000  H
  C2333      1.0000 0.01318  0.50000  0.04608  Biso   1.000  C
  C2334      1.0000 0.01318  0.50000  0.07099  Biso   1.000  C
  S2335      1.0000 0.02569  0.48749  0.08545  Biso   1.000  S
  C2336      1.0000 0.02124  0.49194  0.62170  Biso   1.000  C
  C2337      1.0000 0.00513  0.50806  0.62170  Biso   1.000  C
  C2338      1.0000 0.00067  0.51251  0.08545  Biso   1.000  C
  H2339      1.0000 0.99021  0.52297  0.08078  Biso   1.000  H
  H2340      1.0000 0.10715  0.47703  0.00978  Biso   1.000  H
  H2341      1.0000 0.16263  0.52297  0.96384  Biso   1.000  H
  H2342      1.0000 0.03615  0.59396  0.96384  Biso   1.000  H
  O2343      1.0000 0.02681  0.48637  0.69318  Biso   1.000  O
  C2344      1.0000 0.01318  0.50000  0.68414  Biso   1.000  C
  C2345      1.0000 0.01318  0.50000  0.65923  Biso   1.000  C
  S2346      1.0000 0.00067  0.51251  0.64477  Biso   1.000  S
  O2347      1.0000 0.99956  0.51363  0.69318  Biso   1.000  O
  C2348      1.0000 0.02569  0.48749  0.64477  Biso   1.000  C
  H2349      1.0000 0.03615  0.47703  0.64944  Biso   1.000  H
  H2350      1.0000 0.99021  0.16263  0.00978  Biso   1.000  H
  H2351      1.0000 0.03615  0.47703  0.08078  Biso   1.000  H
  H2352      1.0000 0.91922  0.52297  0.00978  Biso   1.000  H
  H2353      1.0000 0.99021  0.40604  0.96384  Biso   1.000  H
  H2354      1.0000 0.03615  0.35056  0.00978  Biso   1.000  H
  H2355      1.0000 0.35056  0.47703  0.96384  Biso   1.000  H
  Zn2356      1.0000 0.48132  0.48132  0.96813  Biso   1.000  Zn
  O2357      1.0000 0.50000  0.50000  0.98681  Biso   1.000  O
  O2358      1.0000 0.48637  0.48637  0.93659  Biso   1.000  O
  C2359      1.0000 0.50000  0.50000  0.92755  Biso   1.000  C
  C2360      1.0000 0.50000  0.50000  0.90264  Biso   1.000  C
  S2361      1.0000 0.51251  0.51251  0.88818  Biso   1.000  S
  C2362      1.0000 0.50806  0.50806  0.86511  Biso   1.000  C
  O2363      1.0000 0.51363  0.51363  0.79363  Biso   1.000  O
  C2364      1.0000 0.50000  0.50000  0.80267  Biso   1.000  C
  C2365      1.0000 0.50000  0.50000  0.82758  Biso   1.000  C
  S2366      1.0000 0.48749  0.48749  0.84204  Biso   1.000  S
  C2367      1.0000 0.49194  0.49194  0.86511  Biso   1.000  C
  O2368      1.0000 0.51363  0.51363  0.93659  Biso   1.000  O
  C2369      1.0000 0.48749  0.48749  0.88818  Biso   1.000  C
  H2370      1.0000 0.47703  0.47703  0.89285  Biso   1.000  H
  O2371      1.0000 0.48637  0.48637  0.79363  Biso   1.000  O
  C2372      1.0000 0.51251  0.51251  0.84204  Biso   1.000  C
  H2373      1.0000 0.52297  0.52297  0.83737  Biso   1.000  H
  Zn2374      1.0000 0.51868  0.51868  0.96813  Biso   1.000  Zn
  O2375      1.0000 0.55023  0.51363  0.97318  Biso   1.000  O
  C2376      1.0000 0.55927  0.50000  0.98681  Biso   1.000  C
  C2377      1.0000 0.58417  0.50000  0.98681  Biso   1.000  C
  S2378      1.0000 0.59864  0.48749  0.99932  Biso   1.000  S
  C2379      1.0000 0.62171  0.49194  0.99487  Biso   1.000  C
  O2380      1.0000 0.69318  0.48637  0.00044  Biso   1.000  O
  C2381      1.0000 0.68414  0.50000  0.98681  Biso   1.000  C
  C2382      1.0000 0.65924  0.50000  0.98681  Biso   1.000  C
  S2383      1.0000 0.64478  0.51251  0.97430  Biso   1.000  S
  C2384      1.0000 0.62171  0.50806  0.97876  Biso   1.000  C
  O2385      1.0000 0.55023  0.48637  0.00044  Biso   1.000  O
  C2386      1.0000 0.59864  0.51251  0.97430  Biso   1.000  C
  H2387      1.0000 0.59396  0.52297  0.96384  Biso   1.000  H
  O2388      1.0000 0.69318  0.51363  0.97318  Biso   1.000  O
  C2389      1.0000 0.64478  0.48749  0.99932  Biso   1.000  C
  H2390      1.0000 0.64945  0.47703  0.00978  Biso   1.000  H
  Zn2391      1.0000 0.51868  0.48132  0.00550  Biso   1.000  Zn
  O2392      1.0000 0.51363  0.44977  0.00044  Biso   1.000  O
  C2393      1.0000 0.50000  0.44073  0.98681  Biso   1.000  C
  C2394      1.0000 0.50000  0.41583  0.98681  Biso   1.000  C
  S2395      1.0000 0.48749  0.40137  0.97430  Biso   1.000  S
  C2396      1.0000 0.49194  0.37830  0.97876  Biso   1.000  C
  O2397      1.0000 0.48637  0.30682  0.97318  Biso   1.000  O
  C2398      1.0000 0.50000  0.31586  0.98681  Biso   1.000  C
  C2399      1.0000 0.50000  0.34076  0.98681  Biso   1.000  C
  S2400      1.0000 0.51251  0.35523  0.99932  Biso   1.000  S
  C2401      1.0000 0.50806  0.37830  0.99487  Biso   1.000  C
  O2402      1.0000 0.48637  0.44977  0.97318  Biso   1.000  O
  C2403      1.0000 0.51251  0.40137  0.99932  Biso   1.000  C
  H2404      1.0000 0.52297  0.40604  0.00978  Biso   1.000  H
  O2405      1.0000 0.51363  0.30682  0.00044  Biso   1.000  O
  C2406      1.0000 0.48749  0.35523  0.97430  Biso   1.000  C
  H2407      1.0000 0.47703  0.35056  0.96384  Biso   1.000  H
  Zn2408      1.0000 0.48132  0.48132  0.76209  Biso   1.000  Zn
  Zn2409      1.0000 0.48132  0.27527  0.96813  Biso   1.000  Zn
  Zn2410      1.0000 0.72473  0.48132  0.00550  Biso   1.000  Zn
  Zn2411      1.0000 0.51868  0.27527  0.00550  Biso   1.000  Zn
  Zn2412      1.0000 0.72473  0.51868  0.96813  Biso   1.000  Zn
  Zn2413      1.0000 0.51868  0.51868  0.76209  Biso   1.000  Zn
  Zn2414      1.0000 0.48132  0.51868  0.00550  Biso   1.000  Zn
  O2415      1.0000 0.50000  0.50000  0.74340  Biso   1.000  O
  O2416      1.0000 0.48637  0.44977  0.75703  Biso   1.000  O
  O2417      1.0000 0.51363  0.48637  0.03704  Biso   1.000  O
  O2418      1.0000 0.44977  0.48637  0.75703  Biso   1.000  O
  O2419      1.0000 0.44977  0.48637  0.97318  Biso   1.000  O
  O2420      1.0000 0.51363  0.55023  0.97318  Biso   1.000  O
  C2421      1.0000 0.75147  0.50806  0.62170  Biso   1.000  C
  O2422      1.0000 0.75704  0.51363  0.03704  Biso   1.000  O
  C2423      1.0000 0.74341  0.50000  0.04608  Biso   1.000  C
  C2424      1.0000 0.74341  0.50000  0.07099  Biso   1.000  C
  S2425      1.0000 0.73090  0.48749  0.08545  Biso   1.000  S
  C2426      1.0000 0.73535  0.49194  0.62170  Biso   1.000  C
  O2427      1.0000 0.72978  0.48637  0.03704  Biso   1.000  O
  C2428      1.0000 0.75592  0.51251  0.08545  Biso   1.000  C
  H2429      1.0000 0.76638  0.52297  0.08078  Biso   1.000  H
  Zn2430      1.0000 0.76209  0.51868  0.00550  Biso   1.000  Zn
  O2431      1.0000 0.74341  0.50000  0.98681  Biso   1.000  O
  O2432      1.0000 0.72978  0.44977  0.00044  Biso   1.000  O
  C2433      1.0000 0.37830  0.49194  0.75146  Biso   1.000  C
  C2434      1.0000 0.44073  0.50000  0.74340  Biso   1.000  C
  C2435      1.0000 0.41583  0.50000  0.74340  Biso   1.000  C
  S2436      1.0000 0.40137  0.51251  0.73089  Biso   1.000  S
  C2437      1.0000 0.37830  0.50806  0.73535  Biso   1.000  C
  O2438      1.0000 0.44977  0.51363  0.72978  Biso   1.000  O
  C2439      1.0000 0.40137  0.48749  0.75591  Biso   1.000  C
  H2440      1.0000 0.40604  0.47703  0.76637  Biso   1.000  H
  Zn2441      1.0000 0.48132  0.51868  0.72472  Biso   1.000  Zn
  Zn2442      1.0000 0.72473  0.48132  0.72472  Biso   1.000  Zn
  O2443      1.0000 0.74341  0.50000  0.74340  Biso   1.000  O
  O2444      1.0000 0.72978  0.48637  0.69318  Biso   1.000  O
  C2445      1.0000 0.74341  0.50000  0.68414  Biso   1.000  C
  C2446      1.0000 0.74341  0.50000  0.65923  Biso   1.000  C
  S2447      1.0000 0.75592  0.51251  0.64477  Biso   1.000  S
  O2448      1.0000 0.75704  0.51363  0.69318  Biso   1.000  O
  C2449      1.0000 0.73090  0.48749  0.64477  Biso   1.000  C
  H2450      1.0000 0.72044  0.47703  0.64944  Biso   1.000  H
  Zn2451      1.0000 0.76209  0.51868  0.72472  Biso   1.000  Zn
  O2452      1.0000 0.79364  0.51363  0.72978  Biso   1.000  O
  C2453      1.0000 0.80268  0.50000  0.74340  Biso   1.000  C
  C2454      1.0000 0.82758  0.50000  0.74340  Biso   1.000  C
  S2455      1.0000 0.84204  0.48749  0.75591  Biso   1.000  S
  O2456      1.0000 0.79364  0.48637  0.75703  Biso   1.000  O
  C2457      1.0000 0.84204  0.51251  0.73089  Biso   1.000  C
  H2458      1.0000 0.83737  0.52297  0.72043  Biso   1.000  H
  Zn2459      1.0000 0.76209  0.48132  0.76209  Biso   1.000  Zn
  O2460      1.0000 0.75704  0.44977  0.75703  Biso   1.000  O
  C2461      1.0000 0.74341  0.44073  0.74340  Biso   1.000  C
  C2462      1.0000 0.74341  0.41583  0.74340  Biso   1.000  C
  S2463      1.0000 0.73090  0.40137  0.73089  Biso   1.000  S
  C2464      1.0000 0.73535  0.37830  0.73535  Biso   1.000  C
  O2465      1.0000 0.72978  0.30682  0.72978  Biso   1.000  O
  C2466      1.0000 0.74341  0.31586  0.74340  Biso   1.000  C
  C2467      1.0000 0.74341  0.34076  0.74340  Biso   1.000  C
  S2468      1.0000 0.75592  0.35523  0.75591  Biso   1.000  S
  C2469      1.0000 0.75147  0.37830  0.75146  Biso   1.000  C
  O2470      1.0000 0.72978  0.44977  0.72978  Biso   1.000  O
  C2471      1.0000 0.75592  0.40137  0.75591  Biso   1.000  C
  H2472      1.0000 0.76638  0.40604  0.76637  Biso   1.000  H
  O2473      1.0000 0.75704  0.30682  0.75703  Biso   1.000  O
  C2474      1.0000 0.73090  0.35523  0.73089  Biso   1.000  C
  H2475      1.0000 0.72044  0.35056  0.72043  Biso   1.000  H
  Zn2476      1.0000 0.72473  0.27527  0.72472  Biso   1.000  Zn
  Zn2477      1.0000 0.76209  0.27527  0.76209  Biso   1.000  Zn
  Zn2478      1.0000 0.72473  0.51868  0.76209  Biso   1.000  Zn
  O2479      1.0000 0.75704  0.48637  0.79363  Biso   1.000  O
  O2480      1.0000 0.69318  0.48637  0.72978  Biso   1.000  O
  O2481      1.0000 0.75704  0.55023  0.72978  Biso   1.000  O
  C2482      1.0000 0.73535  0.13489  0.97876  Biso   1.000  C
  O2483      1.0000 0.72978  0.55023  0.97318  Biso   1.000  O
  C2484      1.0000 0.74341  0.55927  0.98681  Biso   1.000  C
  C2485      1.0000 0.74341  0.58417  0.98681  Biso   1.000  C
  S2486      1.0000 0.75592  0.59863  0.99932  Biso   1.000  S
  C2487      1.0000 0.75147  0.13489  0.99487  Biso   1.000  C
  O2488      1.0000 0.75704  0.55023  0.00044  Biso   1.000  O
  C2489      1.0000 0.73090  0.59863  0.97430  Biso   1.000  C
  H2490      1.0000 0.72044  0.59396  0.96384  Biso   1.000  H
  C2491      1.0000 0.37830  0.24853  0.99487  Biso   1.000  C
  O2492      1.0000 0.44977  0.24296  0.00044  Biso   1.000  O
  C2493      1.0000 0.44073  0.25659  0.98681  Biso   1.000  C
  C2494      1.0000 0.41583  0.25659  0.98681  Biso   1.000  C
  S2495      1.0000 0.40137  0.26910  0.97430  Biso   1.000  S
  C2496      1.0000 0.37830  0.26465  0.97876  Biso   1.000  C
  O2497      1.0000 0.44977  0.27022  0.97318  Biso   1.000  O
  C2498      1.0000 0.40137  0.24408  0.99932  Biso   1.000  C
  H2499      1.0000 0.40604  0.23362  0.00978  Biso   1.000  H
  Zn2500      1.0000 0.48132  0.23791  0.00550  Biso   1.000  Zn
  Zn2501      1.0000 0.72473  0.23791  0.96813  Biso   1.000  Zn
  O2502      1.0000 0.74341  0.25659  0.98681  Biso   1.000  O
  O2503      1.0000 0.72978  0.24296  0.93659  Biso   1.000  O
  C2504      1.0000 0.74341  0.25659  0.92755  Biso   1.000  C
  C2505      1.0000 0.74341  0.25659  0.90264  Biso   1.000  C
  S2506      1.0000 0.75592  0.26910  0.88818  Biso   1.000  S
  C2507      1.0000 0.75147  0.26465  0.86511  Biso   1.000  C
  O2508      1.0000 0.75704  0.27022  0.79363  Biso   1.000  O
  C2509      1.0000 0.74341  0.25659  0.80267  Biso   1.000  C
  C2510      1.0000 0.74341  0.25659  0.82758  Biso   1.000  C
  S2511      1.0000 0.73090  0.24408  0.84204  Biso   1.000  S
  C2512      1.0000 0.73535  0.24853  0.86511  Biso   1.000  C
  O2513      1.0000 0.75704  0.27022  0.93659  Biso   1.000  O
  C2514      1.0000 0.73090  0.24408  0.88818  Biso   1.000  C
  H2515      1.0000 0.72044  0.23362  0.89285  Biso   1.000  H
  O2516      1.0000 0.72978  0.24296  0.79363  Biso   1.000  O
  C2517      1.0000 0.75592  0.26910  0.84204  Biso   1.000  C
  H2518      1.0000 0.76638  0.27956  0.83737  Biso   1.000  H
  Zn2519      1.0000 0.76209  0.27527  0.96813  Biso   1.000  Zn
  O2520      1.0000 0.79364  0.27022  0.97318  Biso   1.000  O
  C2521      1.0000 0.80268  0.25659  0.98681  Biso   1.000  C
  C2522      1.0000 0.82758  0.25659  0.98681  Biso   1.000  C
  S2523      1.0000 0.84204  0.24408  0.99932  Biso   1.000  S
  O2524      1.0000 0.79364  0.24296  0.00044  Biso   1.000  O
  C2525      1.0000 0.84204  0.26910  0.97430  Biso   1.000  C
  H2526      1.0000 0.83737  0.27956  0.96384  Biso   1.000  H
  Zn2527      1.0000 0.76209  0.23791  0.00550  Biso   1.000  Zn
  O2528      1.0000 0.75704  0.20637  0.00044  Biso   1.000  O
  C2529      1.0000 0.74341  0.19732  0.98681  Biso   1.000  C
  C2530      1.0000 0.74341  0.17242  0.98681  Biso   1.000  C
  S2531      1.0000 0.73090  0.15796  0.97430  Biso   1.000  S
  O2532      1.0000 0.72978  0.20637  0.97318  Biso   1.000  O
  C2533      1.0000 0.75592  0.15796  0.99932  Biso   1.000  C
  H2534      1.0000 0.76638  0.16263  0.00978  Biso   1.000  H
  Zn2535      1.0000 0.72473  0.23791  0.76209  Biso   1.000  Zn
  Zn2536      1.0000 0.72473  0.27527  0.00550  Biso   1.000  Zn
  O2537      1.0000 0.74341  0.25659  0.74340  Biso   1.000  O
  O2538      1.0000 0.72978  0.20637  0.75703  Biso   1.000  O
  O2539      1.0000 0.75704  0.24296  0.03704  Biso   1.000  O
  O2540      1.0000 0.69318  0.24296  0.75703  Biso   1.000  O
  O2541      1.0000 0.69318  0.24296  0.97318  Biso   1.000  O
  O2542      1.0000 0.75704  0.30682  0.97318  Biso   1.000  O
  C2543      1.0000 0.49194  0.13489  0.73535  Biso   1.000  C
  O2544      1.0000 0.48637  0.55023  0.72978  Biso   1.000  O
  C2545      1.0000 0.50000  0.55927  0.74340  Biso   1.000  C
  C2546      1.0000 0.50000  0.58417  0.74340  Biso   1.000  C
  S2547      1.0000 0.51251  0.59863  0.75591  Biso   1.000  S
  C2548      1.0000 0.50806  0.13489  0.75146  Biso   1.000  C
  O2549      1.0000 0.51363  0.55023  0.75703  Biso   1.000  O
  C2550      1.0000 0.48749  0.59863  0.73089  Biso   1.000  C
  H2551      1.0000 0.47703  0.59396  0.72043  Biso   1.000  H
  C2552      1.0000 0.50806  0.26465  0.62170  Biso   1.000  C
  O2553      1.0000 0.51363  0.27022  0.03704  Biso   1.000  O
  C2554      1.0000 0.50000  0.25659  0.04608  Biso   1.000  C
  C2555      1.0000 0.50000  0.25659  0.07099  Biso   1.000  C
  S2556      1.0000 0.48749  0.24408  0.08545  Biso   1.000  S
  C2557      1.0000 0.49194  0.24853  0.62170  Biso   1.000  C
  O2558      1.0000 0.48637  0.24296  0.03704  Biso   1.000  O
  C2559      1.0000 0.51251  0.26910  0.08545  Biso   1.000  C
  H2560      1.0000 0.52297  0.27956  0.08078  Biso   1.000  H
  O2561      1.0000 0.50000  0.25659  0.98681  Biso   1.000  O
  O2562      1.0000 0.48637  0.20637  0.00044  Biso   1.000  O
  Zn2563      1.0000 0.48132  0.23791  0.72472  Biso   1.000  Zn
  O2564      1.0000 0.50000  0.25659  0.74340  Biso   1.000  O
  O2565      1.0000 0.48637  0.24296  0.69318  Biso   1.000  O
  C2566      1.0000 0.50000  0.25659  0.68414  Biso   1.000  C
  C2567      1.0000 0.50000  0.25659  0.65923  Biso   1.000  C
  S2568      1.0000 0.51251  0.26910  0.64477  Biso   1.000  S
  O2569      1.0000 0.51363  0.27022  0.69318  Biso   1.000  O
  C2570      1.0000 0.48749  0.24408  0.64477  Biso   1.000  C
  H2571      1.0000 0.47703  0.23362  0.64944  Biso   1.000  H
  Zn2572      1.0000 0.51868  0.27527  0.72472  Biso   1.000  Zn
  O2573      1.0000 0.55023  0.27022  0.72978  Biso   1.000  O
  C2574      1.0000 0.55927  0.25659  0.74340  Biso   1.000  C
  C2575      1.0000 0.58417  0.25659  0.74340  Biso   1.000  C
  S2576      1.0000 0.59864  0.24408  0.75591  Biso   1.000  S
  C2577      1.0000 0.62171  0.24853  0.75146  Biso   1.000  C
  C2578      1.0000 0.68414  0.25659  0.74340  Biso   1.000  C
  C2579      1.0000 0.65924  0.25659  0.74340  Biso   1.000  C
  S2580      1.0000 0.64478  0.26910  0.73089  Biso   1.000  S
  C2581      1.0000 0.62171  0.26465  0.73535  Biso   1.000  C
  O2582      1.0000 0.55023  0.24296  0.75703  Biso   1.000  O
  C2583      1.0000 0.59864  0.26910  0.73089  Biso   1.000  C
  H2584      1.0000 0.59396  0.27956  0.72043  Biso   1.000  H
  O2585      1.0000 0.69318  0.27022  0.72978  Biso   1.000  O
  C2586      1.0000 0.64478  0.24408  0.75591  Biso   1.000  C
  H2587      1.0000 0.64945  0.23362  0.76637  Biso   1.000  H
  Zn2588      1.0000 0.51868  0.23791  0.76209  Biso   1.000  Zn
  O2589      1.0000 0.51363  0.20637  0.75703  Biso   1.000  O
  C2590      1.0000 0.50000  0.19732  0.74340  Biso   1.000  C
  C2591      1.0000 0.50000  0.17242  0.74340  Biso   1.000  C
  S2592      1.0000 0.48749  0.15796  0.73089  Biso   1.000  S
  O2593      1.0000 0.48637  0.20637  0.72978  Biso   1.000  O
  C2594      1.0000 0.51251  0.15796  0.75591  Biso   1.000  C
  H2595      1.0000 0.52297  0.16263  0.76637  Biso   1.000  H
  Zn2596      1.0000 0.48132  0.27527  0.76209  Biso   1.000  Zn
  O2597      1.0000 0.51363  0.24296  0.79363  Biso   1.000  O
  O2598      1.0000 0.44977  0.24296  0.72978  Biso   1.000  O
  O2599      1.0000 0.51363  0.30682  0.72978  Biso   1.000  O
  H2600      1.0000 0.76638  0.27956  0.89285  Biso   1.000  H
  H2601      1.0000 0.72044  0.23362  0.83737  Biso   1.000  H
  C2602      1.0000 0.68414  0.25659  0.98681  Biso   1.000  C
  C2603      1.0000 0.65924  0.25659  0.98681  Biso   1.000  C
  S2604      1.0000 0.64478  0.26910  0.99932  Biso   1.000  S
  C2605      1.0000 0.62171  0.26465  0.99487  Biso   1.000  C
  O2606      1.0000 0.55023  0.27022  0.00044  Biso   1.000  O
  C2607      1.0000 0.55927  0.25659  0.98681  Biso   1.000  C
  C2608      1.0000 0.58417  0.25659  0.98681  Biso   1.000  C
  S2609      1.0000 0.59864  0.24408  0.97430  Biso   1.000  S
  C2610      1.0000 0.62171  0.24853  0.97876  Biso   1.000  C
  O2611      1.0000 0.69318  0.27022  0.00044  Biso   1.000  O
  C2612      1.0000 0.64478  0.24408  0.97430  Biso   1.000  C
  H2613      1.0000 0.64945  0.23362  0.96384  Biso   1.000  H
  O2614      1.0000 0.55023  0.24296  0.97318  Biso   1.000  O
  C2615      1.0000 0.59864  0.26910  0.99932  Biso   1.000  C
  H2616      1.0000 0.59396  0.27956  0.00978  Biso   1.000  H
  O2617      1.0000 0.72978  0.30682  0.00044  Biso   1.000  O
  C2618      1.0000 0.74341  0.31586  0.98681  Biso   1.000  C
  C2619      1.0000 0.74341  0.34076  0.98681  Biso   1.000  C
  S2620      1.0000 0.75592  0.35523  0.97430  Biso   1.000  S
  C2621      1.0000 0.75147  0.37830  0.97876  Biso   1.000  C
  O2622      1.0000 0.75704  0.44977  0.97318  Biso   1.000  O
  C2623      1.0000 0.74341  0.44073  0.98681  Biso   1.000  C
  C2624      1.0000 0.74341  0.41583  0.98681  Biso   1.000  C
  S2625      1.0000 0.73090  0.40137  0.99932  Biso   1.000  S
  C2626      1.0000 0.73535  0.37830  0.99487  Biso   1.000  C
  C2627      1.0000 0.73090  0.35523  0.99932  Biso   1.000  C
  H2628      1.0000 0.72044  0.35056  0.00978  Biso   1.000  H
  C2629      1.0000 0.75592  0.40137  0.97430  Biso   1.000  C
  H2630      1.0000 0.76638  0.40604  0.96384  Biso   1.000  H
  Zn2631      1.0000 0.76209  0.48132  0.96813  Biso   1.000  Zn
  Zn2632      1.0000 0.51868  0.23791  0.96813  Biso   1.000  Zn
  O2633      1.0000 0.72978  0.27022  0.03704  Biso   1.000  O
  O2634      1.0000 0.79364  0.27022  0.75703  Biso   1.000  O
  O2635      1.0000 0.48637  0.27022  0.79363  Biso   1.000  O
  C2636      1.0000 0.50000  0.25659  0.80267  Biso   1.000  C
  C2637      1.0000 0.50000  0.25659  0.82758  Biso   1.000  C
  S2638      1.0000 0.51251  0.24408  0.84204  Biso   1.000  S
  C2639      1.0000 0.50806  0.24853  0.86511  Biso   1.000  C
  O2640      1.0000 0.51363  0.24296  0.93659  Biso   1.000  O
  C2641      1.0000 0.50000  0.25659  0.92755  Biso   1.000  C
  C2642      1.0000 0.50000  0.25659  0.90264  Biso   1.000  C
  S2643      1.0000 0.48749  0.26910  0.88818  Biso   1.000  S
  C2644      1.0000 0.49194  0.26465  0.86511  Biso   1.000  C
  C2645      1.0000 0.48749  0.26910  0.84204  Biso   1.000  C
  H2646      1.0000 0.47703  0.27956  0.83737  Biso   1.000  H
  O2647      1.0000 0.48637  0.27022  0.93659  Biso   1.000  O
  C2648      1.0000 0.51251  0.24408  0.88818  Biso   1.000  C
  H2649      1.0000 0.52297  0.23362  0.89285  Biso   1.000  H
  H2650      1.0000 0.59396  0.23362  0.76637  Biso   1.000  H
  H2651      1.0000 0.64945  0.27956  0.72043  Biso   1.000  H
  C2652      1.0000 0.50000  0.31586  0.74340  Biso   1.000  C
  C2653      1.0000 0.50000  0.34076  0.74340  Biso   1.000  C
  S2654      1.0000 0.48749  0.35523  0.75591  Biso   1.000  S
  C2655      1.0000 0.49194  0.37830  0.75146  Biso   1.000  C
  C2656      1.0000 0.50000  0.44073  0.74340  Biso   1.000  C
  C2657      1.0000 0.50000  0.41583  0.74340  Biso   1.000  C
  S2658      1.0000 0.51251  0.40137  0.73089  Biso   1.000  S
  C2659      1.0000 0.50806  0.37830  0.73535  Biso   1.000  C
  O2660      1.0000 0.48637  0.30682  0.75703  Biso   1.000  O
  C2661      1.0000 0.51251  0.35523  0.73089  Biso   1.000  C
  H2662      1.0000 0.52297  0.35056  0.72043  Biso   1.000  H
  O2663      1.0000 0.51363  0.44977  0.72978  Biso   1.000  O
  C2664      1.0000 0.48749  0.40137  0.75591  Biso   1.000  C
  H2665      1.0000 0.47703  0.40604  0.76637  Biso   1.000  H
  Zn2666      1.0000 0.51868  0.48132  0.72472  Biso   1.000  Zn
  O2667      1.0000 0.44977  0.27022  0.75703  Biso   1.000  O
  H2668      1.0000 0.52297  0.52297  0.89285  Biso   1.000  H
  H2669      1.0000 0.47703  0.47703  0.83737  Biso   1.000  H
  C2670      1.0000 0.44073  0.50000  0.98681  Biso   1.000  C
  C2671      1.0000 0.41583  0.50000  0.98681  Biso   1.000  C
  S2672      1.0000 0.40137  0.51251  0.99932  Biso   1.000  S
  C2673      1.0000 0.37830  0.50806  0.99487  Biso   1.000  C
  C2674      1.0000 0.37830  0.49194  0.97876  Biso   1.000  C
  O2675      1.0000 0.44977  0.51363  0.00044  Biso   1.000  O
  C2676      1.0000 0.40137  0.48749  0.97430  Biso   1.000  C
  H2677      1.0000 0.40604  0.47703  0.96384  Biso   1.000  H
  O2678      1.0000 0.48637  0.55023  0.00044  Biso   1.000  O
  C2679      1.0000 0.50000  0.55927  0.98681  Biso   1.000  C
  C2680      1.0000 0.50000  0.58417  0.98681  Biso   1.000  C
  S2681      1.0000 0.51251  0.59863  0.97430  Biso   1.000  S
  C2682      1.0000 0.50806  0.13489  0.97876  Biso   1.000  C
  C2683      1.0000 0.49194  0.13489  0.99487  Biso   1.000  C
  C2684      1.0000 0.48749  0.59863  0.99932  Biso   1.000  C
  H2685      1.0000 0.47703  0.59396  0.00978  Biso   1.000  H
  O2686      1.0000 0.48637  0.51363  0.03704  Biso   1.000  O
  O2687      1.0000 0.55023  0.51363  0.75703  Biso   1.000  O
  O2688      1.0000 0.79364  0.51363  0.00044  Biso   1.000  O
  C2689      1.0000 0.80268  0.50000  0.98681  Biso   1.000  C
  C2690      1.0000 0.82758  0.50000  0.98681  Biso   1.000  C
  S2691      1.0000 0.84204  0.48749  0.97430  Biso   1.000  S
  O2692      1.0000 0.79364  0.48637  0.97318  Biso   1.000  O
  C2693      1.0000 0.84204  0.51251  0.99932  Biso   1.000  C
  H2694      1.0000 0.83737  0.52297  0.00978  Biso   1.000  H
  O2695      1.0000 0.51363  0.20637  0.97318  Biso   1.000  O
  C2696      1.0000 0.50000  0.19732  0.98681  Biso   1.000  C
  C2697      1.0000 0.50000  0.17242  0.98681  Biso   1.000  C
  S2698      1.0000 0.48749  0.15796  0.99932  Biso   1.000  S
  C2699      1.0000 0.51251  0.15796  0.97430  Biso   1.000  C
  H2700      1.0000 0.52297  0.16263  0.96384  Biso   1.000  H
  C2701      1.0000 0.74341  0.50000  0.80267  Biso   1.000  C
  C2702      1.0000 0.74341  0.50000  0.82758  Biso   1.000  C
  S2703      1.0000 0.73090  0.51251  0.84204  Biso   1.000  S
  C2704      1.0000 0.73535  0.50806  0.86511  Biso   1.000  C
  O2705      1.0000 0.72978  0.51363  0.93659  Biso   1.000  O
  C2706      1.0000 0.74341  0.50000  0.92755  Biso   1.000  C
  C2707      1.0000 0.74341  0.50000  0.90264  Biso   1.000  C
  S2708      1.0000 0.75592  0.48749  0.88818  Biso   1.000  S
  C2709      1.0000 0.75147  0.49194  0.86511  Biso   1.000  C
  O2710      1.0000 0.72978  0.51363  0.79363  Biso   1.000  O
  C2711      1.0000 0.75592  0.48749  0.84204  Biso   1.000  C
  H2712      1.0000 0.76638  0.47703  0.83737  Biso   1.000  H
  O2713      1.0000 0.75704  0.48637  0.93659  Biso   1.000  O
  C2714      1.0000 0.73090  0.51251  0.88818  Biso   1.000  C
  H2715      1.0000 0.72044  0.52297  0.89285  Biso   1.000  H
  O2716      1.0000 0.69318  0.51363  0.75703  Biso   1.000  O
  C2717      1.0000 0.68414  0.50000  0.74340  Biso   1.000  C
  C2718      1.0000 0.65924  0.50000  0.74340  Biso   1.000  C
  S2719      1.0000 0.64478  0.48749  0.73089  Biso   1.000  S
  C2720      1.0000 0.62171  0.49194  0.73535  Biso   1.000  C
  O2721      1.0000 0.55023  0.48637  0.72978  Biso   1.000  O
  C2722      1.0000 0.55927  0.50000  0.74340  Biso   1.000  C
  C2723      1.0000 0.58417  0.50000  0.74340  Biso   1.000  C
  S2724      1.0000 0.59864  0.51251  0.75591  Biso   1.000  S
  C2725      1.0000 0.62171  0.50806  0.75146  Biso   1.000  C
  C2726      1.0000 0.64478  0.51251  0.75591  Biso   1.000  C
  H2727      1.0000 0.64945  0.52297  0.76637  Biso   1.000  H
  C2728      1.0000 0.59864  0.48749  0.73089  Biso   1.000  C
  H2729      1.0000 0.59397  0.47703  0.72043  Biso   1.000  H
  H2730      1.0000 0.72044  0.40604  0.72043  Biso   1.000  H
  H2731      1.0000 0.76638  0.35056  0.76637  Biso   1.000  H
  O2732      1.0000 0.72978  0.55023  0.75703  Biso   1.000  O
  H2733      1.0000 0.40604  0.52297  0.72043  Biso   1.000  H
  H2734      1.0000 0.72044  0.52297  0.83737  Biso   1.000  H
  H2735      1.0000 0.76638  0.47703  0.89285  Biso   1.000  H
  H2736      1.0000 0.83737  0.47703  0.76637  Biso   1.000  H
  C2737      1.0000 0.74341  0.55927  0.74340  Biso   1.000  C
  C2738      1.0000 0.74341  0.58417  0.74340  Biso   1.000  C
  S2739      1.0000 0.73090  0.59863  0.75591  Biso   1.000  S
  C2740      1.0000 0.73535  0.13489  0.75146  Biso   1.000  C
  C2741      1.0000 0.75147  0.13489  0.73535  Biso   1.000  C
  C2742      1.0000 0.75592  0.59863  0.73089  Biso   1.000  C
  H2743      1.0000 0.76638  0.59396  0.72043  Biso   1.000  H
  C2744      1.0000 0.74341  0.19732  0.74340  Biso   1.000  C
  C2745      1.0000 0.74341  0.17242  0.74340  Biso   1.000  C
  S2746      1.0000 0.75592  0.15796  0.73089  Biso   1.000  S
  O2747      1.0000 0.75704  0.20637  0.72978  Biso   1.000  O
  C2748      1.0000 0.73090  0.15796  0.75591  Biso   1.000  C
  H2749      1.0000 0.72044  0.16263  0.76637  Biso   1.000  H
  Zn2750      1.0000 0.76209  0.23791  0.72472  Biso   1.000  Zn
  H2751      1.0000 0.40604  0.27956  0.96384  Biso   1.000  H
  C2752      1.0000 0.74341  0.25659  0.04608  Biso   1.000  C
  C2753      1.0000 0.74341  0.25659  0.07099  Biso   1.000  C
  S2754      1.0000 0.75592  0.24408  0.08545  Biso   1.000  S
  C2755      1.0000 0.75147  0.24853  0.62170  Biso   1.000  C
  C2756      1.0000 0.73535  0.26465  0.62170  Biso   1.000  C
  C2757      1.0000 0.73090  0.26910  0.08545  Biso   1.000  C
  H2758      1.0000 0.72044  0.27956  0.08078  Biso   1.000  H
  H2759      1.0000 0.83737  0.23362  0.00978  Biso   1.000  H
  H2760      1.0000 0.76638  0.35056  0.96384  Biso   1.000  H
  H2761      1.0000 0.72044  0.40604  0.00978  Biso   1.000  H
  O2762      1.0000 0.75704  0.24296  0.69318  Biso   1.000  O
  C2763      1.0000 0.74341  0.25659  0.68414  Biso   1.000  C
  C2764      1.0000 0.74341  0.25659  0.65923  Biso   1.000  C
  S2765      1.0000 0.73090  0.26910  0.64477  Biso   1.000  S
  O2766      1.0000 0.72978  0.27022  0.69318  Biso   1.000  O
  C2767      1.0000 0.75592  0.24408  0.64477  Biso   1.000  C
  H2768      1.0000 0.76638  0.23362  0.64944  Biso   1.000  H
  H2769      1.0000 0.47703  0.23362  0.08078  Biso   1.000  H
  H2770      1.0000 0.52297  0.27956  0.64944  Biso   1.000  H
  C2771      1.0000 0.44073  0.25659  0.74340  Biso   1.000  C
  C2772      1.0000 0.41583  0.25659  0.74340  Biso   1.000  C
  S2773      1.0000 0.40137  0.26910  0.75591  Biso   1.000  S
  C2774      1.0000 0.37830  0.26465  0.75146  Biso   1.000  C
  C2775      1.0000 0.37830  0.24853  0.73535  Biso   1.000  C
  C2776      1.0000 0.40137  0.24408  0.73089  Biso   1.000  C
  H2777      1.0000 0.40604  0.23362  0.72043  Biso   1.000  H
  H2778      1.0000 0.47703  0.35056  0.76637  Biso   1.000  H
  H2779      1.0000 0.52297  0.40604  0.72043  Biso   1.000  H
  C2780      1.0000 0.80268  0.25659  0.74340  Biso   1.000  C
  C2781      1.0000 0.82758  0.25659  0.74340  Biso   1.000  C
  S2782      1.0000 0.84204  0.24408  0.73089  Biso   1.000  S
  O2783      1.0000 0.79364  0.24296  0.72978  Biso   1.000  O
  C2784      1.0000 0.84204  0.26910  0.75591  Biso   1.000  C
  H2785      1.0000 0.83737  0.27956  0.76637  Biso   1.000  H
  H2786      1.0000 0.72044  0.47703  0.08078  Biso   1.000  H
  H2787      1.0000 0.76638  0.52297  0.64944  Biso   1.000  H
  H2788      1.0000 0.64945  0.47703  0.72043  Biso   1.000  H
  H2789      1.0000 0.59396  0.52297  0.76637  Biso   1.000  H
  H2790      1.0000 0.72044  0.59396  0.76637  Biso   1.000  H
  H2791      1.0000 0.76638  0.16263  0.72043  Biso   1.000  H
  H2792      1.0000 0.76638  0.59396  0.00978  Biso   1.000  H
  H2793      1.0000 0.76638  0.23362  0.08078  Biso   1.000  H
  H2794      1.0000 0.64945  0.27956  0.00978  Biso   1.000  H
  H2795      1.0000 0.59396  0.23362  0.96384  Biso   1.000  H
  H2796      1.0000 0.72044  0.16263  0.96384  Biso   1.000  H
  H2797      1.0000 0.72044  0.27956  0.64944  Biso   1.000  H
  H2798      1.0000 0.52297  0.59396  0.76637  Biso   1.000  H
  H2799      1.0000 0.52297  0.23362  0.83737  Biso   1.000  H
  H2800      1.0000 0.47703  0.27956  0.89285  Biso   1.000  H
  H2801      1.0000 0.40604  0.27956  0.76637  Biso   1.000  H
  H2802      1.0000 0.47703  0.16263  0.72043  Biso   1.000  H
  H2803      1.0000 0.83737  0.23362  0.72043  Biso   1.000  H
  C2804      1.0000 0.50000  0.50000  0.04608  Biso   1.000  C
  C2805      1.0000 0.50000  0.50000  0.07099  Biso   1.000  C
  S2806      1.0000 0.51251  0.48749  0.08545  Biso   1.000  S
  C2807      1.0000 0.50806  0.49194  0.62170  Biso   1.000  C
  C2808      1.0000 0.49194  0.50806  0.62170  Biso   1.000  C
  C2809      1.0000 0.48749  0.51251  0.08545  Biso   1.000  C
  H2810      1.0000 0.47703  0.52297  0.08078  Biso   1.000  H
  H2811      1.0000 0.59397  0.47703  0.00978  Biso   1.000  H
  H2812      1.0000 0.64945  0.52297  0.96384  Biso   1.000  H
  H2813      1.0000 0.52297  0.59396  0.96384  Biso   1.000  H
  O2814      1.0000 0.51363  0.48637  0.69318  Biso   1.000  O
  C2815      1.0000 0.50000  0.50000  0.68414  Biso   1.000  C
  C2816      1.0000 0.50000  0.50000  0.65923  Biso   1.000  C
  S2817      1.0000 0.48749  0.51251  0.64477  Biso   1.000  S
  O2818      1.0000 0.48637  0.51363  0.69318  Biso   1.000  O
  C2819      1.0000 0.51251  0.48749  0.64477  Biso   1.000  C
  H2820      1.0000 0.52297  0.47703  0.64944  Biso   1.000  H
  H2821      1.0000 0.47703  0.16263  0.00978  Biso   1.000  H
  H2822      1.0000 0.52297  0.47703  0.08078  Biso   1.000  H
  H2823      1.0000 0.40604  0.52297  0.00978  Biso   1.000  H
  H2824      1.0000 0.47703  0.40604  0.96384  Biso   1.000  H
  H2825      1.0000 0.52297  0.35056  0.00978  Biso   1.000  H
  H2826      1.0000 0.83737  0.47703  0.96384  Biso   1.000  H
  Zn2827      1.0000 0.99450  0.48132  0.48131  Biso   1.000  Zn
  O2828      1.0000 0.01318  0.50000  0.50000  Biso   1.000  O
  O2829      1.0000 0.99956  0.48637  0.44977  Biso   1.000  O
  C2830      1.0000 0.01318  0.50000  0.44073  Biso   1.000  C
  C2831      1.0000 0.01318  0.50000  0.41582  Biso   1.000  C
  S2832      1.0000 0.02569  0.51251  0.40136  Biso   1.000  S
  C2833      1.0000 0.02124  0.50806  0.37829  Biso   1.000  C
  O2834      1.0000 0.02681  0.51363  0.30681  Biso   1.000  O
  C2835      1.0000 0.01318  0.50000  0.31585  Biso   1.000  C
  C2836      1.0000 0.01318  0.50000  0.34076  Biso   1.000  C
  S2837      1.0000 0.00067  0.48749  0.35522  Biso   1.000  S
  C2838      1.0000 0.00513  0.49194  0.37829  Biso   1.000  C
  O2839      1.0000 0.02681  0.51363  0.44977  Biso   1.000  O
  C2840      1.0000 0.00067  0.48749  0.40136  Biso   1.000  C
  H2841      1.0000 0.99021  0.47703  0.40603  Biso   1.000  H
  O2842      1.0000 0.99956  0.48637  0.30681  Biso   1.000  O
  C2843      1.0000 0.02569  0.51251  0.35522  Biso   1.000  C
  H2844      1.0000 0.03615  0.52297  0.35055  Biso   1.000  H
  Zn2845      1.0000 0.03187  0.51868  0.48131  Biso   1.000  Zn
  O2846      1.0000 0.06341  0.51363  0.48637  Biso   1.000  O
  C2847      1.0000 0.07245  0.50000  0.50000  Biso   1.000  C
  C2848      1.0000 0.09736  0.50000  0.50000  Biso   1.000  C
  S2849      1.0000 0.11182  0.48749  0.51251  Biso   1.000  S
  C2850      1.0000 0.13489  0.49194  0.50805  Biso   1.000  C
  O2851      1.0000 0.20637  0.48637  0.51362  Biso   1.000  O
  C2852      1.0000 0.19732  0.50000  0.50000  Biso   1.000  C
  C2853      1.0000 0.17242  0.50000  0.50000  Biso   1.000  C
  S2854      1.0000 0.15796  0.51251  0.48748  Biso   1.000  S
  C2855      1.0000 0.13489  0.50806  0.49194  Biso   1.000  C
  O2856      1.0000 0.06341  0.48637  0.51362  Biso   1.000  O
  C2857      1.0000 0.11182  0.51251  0.48748  Biso   1.000  C
  H2858      1.0000 0.10715  0.52297  0.47703  Biso   1.000  H
  O2859      1.0000 0.20637  0.51363  0.48637  Biso   1.000  O
  C2860      1.0000 0.15796  0.48749  0.51251  Biso   1.000  C
  H2861      1.0000 0.16263  0.47703  0.52297  Biso   1.000  H
  Zn2862      1.0000 0.03187  0.48132  0.51868  Biso   1.000  Zn
  O2863      1.0000 0.02681  0.44977  0.51362  Biso   1.000  O
  C2864      1.0000 0.01318  0.44073  0.50000  Biso   1.000  C
  C2865      1.0000 0.01318  0.41583  0.50000  Biso   1.000  C
  S2866      1.0000 0.00067  0.40137  0.48748  Biso   1.000  S
  C2867      1.0000 0.00513  0.37830  0.49194  Biso   1.000  C
  O2868      1.0000 0.99956  0.30682  0.48637  Biso   1.000  O
  C2869      1.0000 0.01318  0.31586  0.50000  Biso   1.000  C
  C2870      1.0000 0.01318  0.34076  0.50000  Biso   1.000  C
  S2871      1.0000 0.02569  0.35523  0.51251  Biso   1.000  S
  C2872      1.0000 0.02124  0.37830  0.50805  Biso   1.000  C
  O2873      1.0000 0.99956  0.44977  0.48637  Biso   1.000  O
  C2874      1.0000 0.02569  0.40137  0.51251  Biso   1.000  C
  H2875      1.0000 0.03615  0.40604  0.52296  Biso   1.000  H
  O2876      1.0000 0.02681  0.30682  0.51362  Biso   1.000  O
  C2877      1.0000 0.00067  0.35523  0.48748  Biso   1.000  C
  H2878      1.0000 0.99021  0.35056  0.47703  Biso   1.000  H
  Zn2879      1.0000 0.99450  0.48132  0.27527  Biso   1.000  Zn
  Zn2880      1.0000 0.99450  0.27527  0.48131  Biso   1.000  Zn
  Zn2881      1.0000 0.23791  0.48132  0.51868  Biso   1.000  Zn
  Zn2882      1.0000 0.03187  0.27527  0.51868  Biso   1.000  Zn
  Zn2883      1.0000 0.23791  0.51868  0.48131  Biso   1.000  Zn
  Zn2884      1.0000 0.03187  0.51868  0.27527  Biso   1.000  Zn
  Zn2885      1.0000 0.99450  0.51868  0.51868  Biso   1.000  Zn
  O2886      1.0000 0.01318  0.50000  0.25659  Biso   1.000  O
  O2887      1.0000 0.99956  0.44977  0.27022  Biso   1.000  O
  O2888      1.0000 0.02681  0.48637  0.55022  Biso   1.000  O
  O2889      1.0000 0.96296  0.48637  0.27022  Biso   1.000  O
  O2890      1.0000 0.96296  0.48637  0.48637  Biso   1.000  O
  O2891      1.0000 0.02681  0.55023  0.48637  Biso   1.000  O
  C2892      1.0000 0.26465  0.50806  0.13488  Biso   1.000  C
  O2893      1.0000 0.27022  0.51363  0.55022  Biso   1.000  O
  C2894      1.0000 0.25659  0.50000  0.55926  Biso   1.000  C
  C2895      1.0000 0.25659  0.50000  0.58417  Biso   1.000  C
  S2896      1.0000 0.24408  0.48749  0.59863  Biso   1.000  S
  C2897      1.0000 0.24854  0.49194  0.13488  Biso   1.000  C
  O2898      1.0000 0.24296  0.48637  0.55022  Biso   1.000  O
  C2899      1.0000 0.26910  0.51251  0.59863  Biso   1.000  C
  H2900      1.0000 0.27956  0.52297  0.59396  Biso   1.000  H
  Zn2901      1.0000 0.27527  0.51868  0.51868  Biso   1.000  Zn
  O2902      1.0000 0.25659  0.50000  0.50000  Biso   1.000  O
  O2903      1.0000 0.24296  0.44977  0.51362  Biso   1.000  O
  C2904      1.0000 0.89148  0.49194  0.26464  Biso   1.000  C
  C2905      1.0000 0.95392  0.50000  0.25659  Biso   1.000  C
  C2906      1.0000 0.92901  0.50000  0.25659  Biso   1.000  C
  S2907      1.0000 0.91455  0.51251  0.24408  Biso   1.000  S
  C2908      1.0000 0.89148  0.50806  0.24853  Biso   1.000  C
  O2909      1.0000 0.96296  0.51363  0.24296  Biso   1.000  O
  C2910      1.0000 0.91455  0.48749  0.26910  Biso   1.000  C
  H2911      1.0000 0.91922  0.47703  0.27956  Biso   1.000  H
  Zn2912      1.0000 0.99450  0.51868  0.23790  Biso   1.000  Zn
  Zn2913      1.0000 0.23791  0.48132  0.23790  Biso   1.000  Zn
  O2914      1.0000 0.25659  0.50000  0.25659  Biso   1.000  O
  O2915      1.0000 0.24296  0.48637  0.20636  Biso   1.000  O
  C2916      1.0000 0.25659  0.50000  0.19732  Biso   1.000  C
  C2917      1.0000 0.25659  0.50000  0.17241  Biso   1.000  C
  S2918      1.0000 0.26910  0.51251  0.15795  Biso   1.000  S
  O2919      1.0000 0.27022  0.51363  0.20636  Biso   1.000  O
  C2920      1.0000 0.24408  0.48749  0.15795  Biso   1.000  C
  H2921      1.0000 0.23362  0.47703  0.16262  Biso   1.000  H
  Zn2922      1.0000 0.27527  0.51868  0.23790  Biso   1.000  Zn
  O2923      1.0000 0.30682  0.51363  0.24296  Biso   1.000  O
  C2924      1.0000 0.31586  0.50000  0.25659  Biso   1.000  C
  C2925      1.0000 0.34076  0.50000  0.25659  Biso   1.000  C
  S2926      1.0000 0.35523  0.48749  0.26910  Biso   1.000  S
  O2927      1.0000 0.30682  0.48637  0.27022  Biso   1.000  O
  C2928      1.0000 0.35523  0.51251  0.24408  Biso   1.000  C
  H2929      1.0000 0.35056  0.52297  0.23362  Biso   1.000  H
  Zn2930      1.0000 0.27527  0.48132  0.27527  Biso   1.000  Zn
  O2931      1.0000 0.27022  0.44977  0.27022  Biso   1.000  O
  C2932      1.0000 0.25659  0.44073  0.25659  Biso   1.000  C
  C2933      1.0000 0.25659  0.41583  0.25659  Biso   1.000  C
  S2934      1.0000 0.24408  0.40137  0.24408  Biso   1.000  S
  C2935      1.0000 0.24854  0.37830  0.24853  Biso   1.000  C
  O2936      1.0000 0.24296  0.30682  0.24296  Biso   1.000  O
  C2937      1.0000 0.25659  0.31586  0.25659  Biso   1.000  C
  C2938      1.0000 0.25659  0.34076  0.25659  Biso   1.000  C
  S2939      1.0000 0.26910  0.35523  0.26910  Biso   1.000  S
  C2940      1.0000 0.26465  0.37830  0.26464  Biso   1.000  C
  O2941      1.0000 0.24296  0.44977  0.24296  Biso   1.000  O
  C2942      1.0000 0.26910  0.40137  0.26910  Biso   1.000  C
  H2943      1.0000 0.27956  0.40604  0.27956  Biso   1.000  H
  O2944      1.0000 0.27022  0.30682  0.27022  Biso   1.000  O
  C2945      1.0000 0.24408  0.35523  0.24408  Biso   1.000  C
  H2946      1.0000 0.23362  0.35056  0.23362  Biso   1.000  H
  Zn2947      1.0000 0.23791  0.27527  0.23790  Biso   1.000  Zn
  Zn2948      1.0000 0.27527  0.27527  0.27527  Biso   1.000  Zn
  Zn2949      1.0000 0.23791  0.51868  0.27527  Biso   1.000  Zn
  O2950      1.0000 0.27022  0.48637  0.30681  Biso   1.000  O
  O2951      1.0000 0.20637  0.48637  0.24296  Biso   1.000  O
  O2952      1.0000 0.27022  0.55023  0.24296  Biso   1.000  O
  C2953      1.0000 0.24854  0.13489  0.49194  Biso   1.000  C
  O2954      1.0000 0.24296  0.55023  0.48637  Biso   1.000  O
  C2955      1.0000 0.25659  0.55927  0.50000  Biso   1.000  C
  C2956      1.0000 0.25659  0.58417  0.50000  Biso   1.000  C
  S2957      1.0000 0.26910  0.59863  0.51251  Biso   1.000  S
  C2958      1.0000 0.26465  0.13489  0.50805  Biso   1.000  C
  O2959      1.0000 0.27022  0.55023  0.51362  Biso   1.000  O
  C2960      1.0000 0.24408  0.59863  0.48748  Biso   1.000  C
  H2961      1.0000 0.23362  0.59396  0.47703  Biso   1.000  H
  C2962      1.0000 0.89148  0.24853  0.50805  Biso   1.000  C
  O2963      1.0000 0.96296  0.24296  0.51362  Biso   1.000  O
  C2964      1.0000 0.95392  0.25659  0.50000  Biso   1.000  C
  C2965      1.0000 0.92901  0.25659  0.50000  Biso   1.000  C
  S2966      1.0000 0.91455  0.26910  0.48748  Biso   1.000  S
  C2967      1.0000 0.89148  0.26465  0.49194  Biso   1.000  C
  O2968      1.0000 0.96296  0.27022  0.48637  Biso   1.000  O
  C2969      1.0000 0.91455  0.24408  0.51251  Biso   1.000  C
  H2970      1.0000 0.91922  0.23362  0.52297  Biso   1.000  H
  Zn2971      1.0000 0.99450  0.23791  0.51868  Biso   1.000  Zn
  Zn2972      1.0000 0.23791  0.23791  0.48131  Biso   1.000  Zn
  O2973      1.0000 0.25659  0.25659  0.50000  Biso   1.000  O
  O2974      1.0000 0.24296  0.24296  0.44977  Biso   1.000  O
  C2975      1.0000 0.25659  0.25659  0.44073  Biso   1.000  C
  C2976      1.0000 0.25659  0.25659  0.41582  Biso   1.000  C
  S2977      1.0000 0.26910  0.26910  0.40136  Biso   1.000  S
  C2978      1.0000 0.26465  0.26465  0.37829  Biso   1.000  C
  O2979      1.0000 0.27022  0.27022  0.30681  Biso   1.000  O
  C2980      1.0000 0.25659  0.25659  0.31585  Biso   1.000  C
  C2981      1.0000 0.25659  0.25659  0.34076  Biso   1.000  C
  S2982      1.0000 0.24408  0.24408  0.35522  Biso   1.000  S
  C2983      1.0000 0.24854  0.24853  0.37829  Biso   1.000  C
  O2984      1.0000 0.27022  0.27022  0.44977  Biso   1.000  O
  C2985      1.0000 0.24408  0.24408  0.40136  Biso   1.000  C
  H2986      1.0000 0.23362  0.23362  0.40603  Biso   1.000  H
  O2987      1.0000 0.24296  0.24296  0.30681  Biso   1.000  O
  C2988      1.0000 0.26910  0.26910  0.35522  Biso   1.000  C
  H2989      1.0000 0.27956  0.27956  0.35055  Biso   1.000  H
  Zn2990      1.0000 0.27527  0.27527  0.48131  Biso   1.000  Zn
  O2991      1.0000 0.30682  0.27022  0.48637  Biso   1.000  O
  C2992      1.0000 0.31586  0.25659  0.50000  Biso   1.000  C
  C2993      1.0000 0.34076  0.25659  0.50000  Biso   1.000  C
  S2994      1.0000 0.35523  0.24408  0.51251  Biso   1.000  S
  O2995      1.0000 0.30682  0.24296  0.51362  Biso   1.000  O
  C2996      1.0000 0.35523  0.26910  0.48748  Biso   1.000  C
  H2997      1.0000 0.35056  0.27956  0.47703  Biso   1.000  H
  Zn2998      1.0000 0.27527  0.23791  0.51868  Biso   1.000  Zn
  O2999      1.0000 0.27022  0.20637  0.51362  Biso   1.000  O
  C3000      1.0000 0.25659  0.19732  0.50000  Biso   1.000  C
  C3001      1.0000 0.25659  0.17242  0.50000  Biso   1.000  C
  S3002      1.0000 0.24408  0.15796  0.48748  Biso   1.000  S
  O3003      1.0000 0.24296  0.20637  0.48637  Biso   1.000  O
  C3004      1.0000 0.26910  0.15796  0.51251  Biso   1.000  C
  H3005      1.0000 0.27956  0.16263  0.52296  Biso   1.000  H
  Zn3006      1.0000 0.23791  0.23791  0.27527  Biso   1.000  Zn
  Zn3007      1.0000 0.23791  0.27527  0.51868  Biso   1.000  Zn
  O3008      1.0000 0.25659  0.25659  0.25659  Biso   1.000  O
  O3009      1.0000 0.24296  0.20637  0.27022  Biso   1.000  O
  O3010      1.0000 0.27022  0.24296  0.55022  Biso   1.000  O
  O3011      1.0000 0.20637  0.24296  0.27022  Biso   1.000  O
  O3012      1.0000 0.20637  0.24296  0.48637  Biso   1.000  O
  O3013      1.0000 0.27022  0.30682  0.48637  Biso   1.000  O
  C3014      1.0000 0.00513  0.13489  0.24853  Biso   1.000  C
  O3015      1.0000 0.99956  0.55023  0.24296  Biso   1.000  O
  C3016      1.0000 0.01318  0.55927  0.25659  Biso   1.000  C
  C3017      1.0000 0.01318  0.58417  0.25659  Biso   1.000  C
  S3018      1.0000 0.02569  0.59863  0.26910  Biso   1.000  S
  C3019      1.0000 0.02124  0.13489  0.26464  Biso   1.000  C
  O3020      1.0000 0.02681  0.55023  0.27022  Biso   1.000  O
  C3021      1.0000 0.00067  0.59864  0.24408  Biso   1.000  C
  H3022      1.0000 0.99021  0.59396  0.23362  Biso   1.000  H
  C3023      1.0000 0.02124  0.26465  0.13488  Biso   1.000  C
  O3024      1.0000 0.02681  0.27022  0.55022  Biso   1.000  O
  C3025      1.0000 0.01318  0.25659  0.55926  Biso   1.000  C
  C3026      1.0000 0.01318  0.25659  0.58417  Biso   1.000  C
  S3027      1.0000 0.00067  0.24408  0.59863  Biso   1.000  S
  C3028      1.0000 0.00513  0.24853  0.13488  Biso   1.000  C
  O3029      1.0000 0.99956  0.24296  0.55022  Biso   1.000  O
  C3030      1.0000 0.02569  0.26910  0.59863  Biso   1.000  C
  H3031      1.0000 0.03615  0.27956  0.59396  Biso   1.000  H
  O3032      1.0000 0.01318  0.25659  0.50000  Biso   1.000  O
  O3033      1.0000 0.99956  0.20637  0.51362  Biso   1.000  O
  Zn3034      1.0000 0.99450  0.23791  0.23790  Biso   1.000  Zn
  O3035      1.0000 0.01318  0.25659  0.25659  Biso   1.000  O
  O3036      1.0000 0.99955  0.24296  0.20636  Biso   1.000  O
  C3037      1.0000 0.01318  0.25659  0.19732  Biso   1.000  C
  C3038      1.0000 0.01318  0.25659  0.17241  Biso   1.000  C
  S3039      1.0000 0.02569  0.26910  0.15795  Biso   1.000  S
  O3040      1.0000 0.02681  0.27022  0.20636  Biso   1.000  O
  C3041      1.0000 0.00067  0.24408  0.15795  Biso   1.000  C
  H3042      1.0000 0.99021  0.23362  0.16262  Biso   1.000  H
  Zn3043      1.0000 0.03187  0.27527  0.23790  Biso   1.000  Zn
  O3044      1.0000 0.06341  0.27022  0.24296  Biso   1.000  O
  C3045      1.0000 0.07245  0.25659  0.25659  Biso   1.000  C
  C3046      1.0000 0.09736  0.25659  0.25659  Biso   1.000  C
  S3047      1.0000 0.11182  0.24408  0.26910  Biso   1.000  S
  C3048      1.0000 0.13489  0.24853  0.26464  Biso   1.000  C
  C3049      1.0000 0.19732  0.25659  0.25659  Biso   1.000  C
  C3050      1.0000 0.17242  0.25659  0.25659  Biso   1.000  C
  S3051      1.0000 0.15796  0.26910  0.24408  Biso   1.000  S
  C3052      1.0000 0.13489  0.26465  0.24853  Biso   1.000  C
  O3053      1.0000 0.06341  0.24296  0.27022  Biso   1.000  O
  C3054      1.0000 0.11182  0.26910  0.24408  Biso   1.000  C
  H3055      1.0000 0.10715  0.27956  0.23362  Biso   1.000  H
  O3056      1.0000 0.20637  0.27022  0.24296  Biso   1.000  O
  C3057      1.0000 0.15796  0.24408  0.26910  Biso   1.000  C
  H3058      1.0000 0.16263  0.23362  0.27956  Biso   1.000  H
  Zn3059      1.0000 0.03187  0.23791  0.27527  Biso   1.000  Zn
  O3060      1.0000 0.02681  0.20637  0.27022  Biso   1.000  O
  C3061      1.0000 0.01318  0.19732  0.25659  Biso   1.000  C
  C3062      1.0000 0.01318  0.17242  0.25659  Biso   1.000  C
  S3063      1.0000 0.00067  0.15796  0.24408  Biso   1.000  S
  O3064      1.0000 0.99956  0.20637  0.24296  Biso   1.000  O
  C3065      1.0000 0.02569  0.15796  0.26910  Biso   1.000  C
  H3066      1.0000 0.03615  0.16263  0.27956  Biso   1.000  H
  Zn3067      1.0000 0.99450  0.27527  0.27527  Biso   1.000  Zn
  O3068      1.0000 0.02681  0.24296  0.30681  Biso   1.000  O
  O3069      1.0000 0.96296  0.24296  0.24296  Biso   1.000  O
  O3070      1.0000 0.02681  0.30682  0.24296  Biso   1.000  O
  H3071      1.0000 0.27956  0.27956  0.40603  Biso   1.000  H
  H3072      1.0000 0.23362  0.23362  0.35055  Biso   1.000  H
  C3073      1.0000 0.19732  0.25659  0.50000  Biso   1.000  C
  C3074      1.0000 0.17242  0.25659  0.50000  Biso   1.000  C
  S3075      1.0000 0.15796  0.26910  0.51251  Biso   1.000  S
  C3076      1.0000 0.13489  0.26465  0.50805  Biso   1.000  C
  O3077      1.0000 0.06341  0.27022  0.51362  Biso   1.000  O
  C3078      1.0000 0.07245  0.25659  0.50000  Biso   1.000  C
  C3079      1.0000 0.09736  0.25659  0.50000  Biso   1.000  C
  S3080      1.0000 0.11182  0.24408  0.48748  Biso   1.000  S
  C3081      1.0000 0.13489  0.24853  0.49194  Biso   1.000  C
  O3082      1.0000 0.20637  0.27022  0.51362  Biso   1.000  O
  C3083      1.0000 0.15796  0.24408  0.48748  Biso   1.000  C
  H3084      1.0000 0.16263  0.23362  0.47703  Biso   1.000  H
  O3085      1.0000 0.06341  0.24296  0.48637  Biso   1.000  O
  C3086      1.0000 0.11182  0.26910  0.51251  Biso   1.000  C
  H3087      1.0000 0.10715  0.27956  0.52296  Biso   1.000  H
  O3088      1.0000 0.24296  0.30682  0.51362  Biso   1.000  O
  C3089      1.0000 0.25659  0.31586  0.50000  Biso   1.000  C
  C3090      1.0000 0.25659  0.34076  0.50000  Biso   1.000  C
  S3091      1.0000 0.26910  0.35523  0.48748  Biso   1.000  S
  C3092      1.0000 0.26465  0.37830  0.49194  Biso   1.000  C
  O3093      1.0000 0.27022  0.44977  0.48637  Biso   1.000  O
  C3094      1.0000 0.25659  0.44073  0.50000  Biso   1.000  C
  C3095      1.0000 0.25659  0.41583  0.50000  Biso   1.000  C
  S3096      1.0000 0.24408  0.40137  0.51251  Biso   1.000  S
  C3097      1.0000 0.24854  0.37830  0.50805  Biso   1.000  C
  C3098      1.0000 0.24408  0.35523  0.51251  Biso   1.000  C
  H3099      1.0000 0.23362  0.35056  0.52296  Biso   1.000  H
  C3100      1.0000 0.26910  0.40137  0.48748  Biso   1.000  C
  H3101      1.0000 0.27956  0.40604  0.47703  Biso   1.000  H
  Zn3102      1.0000 0.27527  0.48132  0.48131  Biso   1.000  Zn
  Zn3103      1.0000 0.03187  0.23791  0.48131  Biso   1.000  Zn
  O3104      1.0000 0.24296  0.27022  0.55022  Biso   1.000  O
  O3105      1.0000 0.30682  0.27022  0.27022  Biso   1.000  O
  O3106      1.0000 0.99956  0.27022  0.30681  Biso   1.000  O
  C3107      1.0000 0.01318  0.25659  0.31585  Biso   1.000  C
  C3108      1.0000 0.01318  0.25659  0.34076  Biso   1.000  C
  S3109      1.0000 0.02569  0.24408  0.35522  Biso   1.000  S
  C3110      1.0000 0.02124  0.24853  0.37829  Biso   1.000  C
  O3111      1.0000 0.02681  0.24296  0.44977  Biso   1.000  O
  C3112      1.0000 0.01318  0.25659  0.44073  Biso   1.000  C
  C3113      1.0000 0.01318  0.25659  0.41582  Biso   1.000  C
  S3114      1.0000 0.00067  0.26910  0.40136  Biso   1.000  S
  C3115      1.0000 0.00513  0.26465  0.37829  Biso   1.000  C
  C3116      1.0000 0.00067  0.26910  0.35522  Biso   1.000  C
  H3117      1.0000 0.99021  0.27956  0.35055  Biso   1.000  H
  O3118      1.0000 0.99956  0.27022  0.44977  Biso   1.000  O
  C3119      1.0000 0.02569  0.24408  0.40136  Biso   1.000  C
  H3120      1.0000 0.03615  0.23362  0.40603  Biso   1.000  H
  H3121      1.0000 0.10715  0.23362  0.27956  Biso   1.000  H
  H3122      1.0000 0.16263  0.27956  0.23362  Biso   1.000  H
  C3123      1.0000 0.01318  0.31586  0.25659  Biso   1.000  C
  C3124      1.0000 0.01318  0.34076  0.25659  Biso   1.000  C
  S3125      1.0000 0.00067  0.35523  0.26910  Biso   1.000  S
  C3126      1.0000 0.00513  0.37830  0.26464  Biso   1.000  C
  C3127      1.0000 0.01318  0.44073  0.25659  Biso   1.000  C
  C3128      1.0000 0.01318  0.41583  0.25659  Biso   1.000  C
  S3129      1.0000 0.02569  0.40137  0.24408  Biso   1.000  S
  C3130      1.0000 0.02124  0.37830  0.24853  Biso   1.000  C
  O3131      1.0000 0.99956  0.30682  0.27022  Biso   1.000  O
  C3132      1.0000 0.02569  0.35523  0.24408  Biso   1.000  C
  H3133      1.0000 0.03615  0.35056  0.23362  Biso   1.000  H
  O3134      1.0000 0.02681  0.44977  0.24296  Biso   1.000  O
  C3135      1.0000 0.00067  0.40137  0.26910  Biso   1.000  C
  H3136      1.0000 0.99021  0.40604  0.27956  Biso   1.000  H
  Zn3137      1.0000 0.03187  0.48132  0.23790  Biso   1.000  Zn
  O3138      1.0000 0.96296  0.27022  0.27022  Biso   1.000  O
  H3139      1.0000 0.03615  0.52297  0.40603  Biso   1.000  H
  H3140      1.0000 0.99021  0.47703  0.35055  Biso   1.000  H
  C3141      1.0000 0.95392  0.50000  0.50000  Biso   1.000  C
  C3142      1.0000 0.92901  0.50000  0.50000  Biso   1.000  C
  S3143      1.0000 0.91455  0.51251  0.51251  Biso   1.000  S
  C3144      1.0000 0.89148  0.50806  0.50805  Biso   1.000  C
  C3145      1.0000 0.89148  0.49194  0.49194  Biso   1.000  C
  O3146      1.0000 0.96296  0.51363  0.51362  Biso   1.000  O
  C3147      1.0000 0.91455  0.48749  0.48748  Biso   1.000  C
  H3148      1.0000 0.91922  0.47703  0.47703  Biso   1.000  H
  O3149      1.0000 0.99956  0.55023  0.51362  Biso   1.000  O
  C3150      1.0000 0.01318  0.55927  0.50000  Biso   1.000  C
  C3151      1.0000 0.01318  0.58417  0.50000  Biso   1.000  C
  S3152      1.0000 0.02569  0.59863  0.48748  Biso   1.000  S
  C3153      1.0000 0.02124  0.13489  0.49194  Biso   1.000  C
  C3154      1.0000 0.00513  0.13489  0.50805  Biso   1.000  C
  C3155      1.0000 0.00067  0.59863  0.51251  Biso   1.000  C
  H3156      1.0000 0.99021  0.59396  0.52297  Biso   1.000  H
  O3157      1.0000 0.99956  0.51363  0.55022  Biso   1.000  O
  O3158      1.0000 0.06341  0.51363  0.27022  Biso   1.000  O
  O3159      1.0000 0.30682  0.51363  0.51362  Biso   1.000  O
  C3160      1.0000 0.31586  0.50000  0.50000  Biso   1.000  C
  C3161      1.0000 0.34076  0.50000  0.50000  Biso   1.000  C
  S3162      1.0000 0.35523  0.48749  0.48748  Biso   1.000  S
  O3163      1.0000 0.30682  0.48637  0.48637  Biso   1.000  O
  C3164      1.0000 0.35523  0.51251  0.51251  Biso   1.000  C
  H3165      1.0000 0.35056  0.52297  0.52296  Biso   1.000  H
  O3166      1.0000 0.02681  0.20637  0.48637  Biso   1.000  O
  C3167      1.0000 0.01318  0.19732  0.50000  Biso   1.000  C
  C3168      1.0000 0.01318  0.17242  0.50000  Biso   1.000  C
  S3169      1.0000 0.00067  0.15796  0.51251  Biso   1.000  S
  C3170      1.0000 0.02569  0.15796  0.48748  Biso   1.000  C
  H3171      1.0000 0.03615  0.16263  0.47703  Biso   1.000  H
  C3172      1.0000 0.25659  0.50000  0.31585  Biso   1.000  C
  C3173      1.0000 0.25659  0.50000  0.34076  Biso   1.000  C
  S3174      1.0000 0.24408  0.51251  0.35522  Biso   1.000  S
  C3175      1.0000 0.24854  0.50806  0.37829  Biso   1.000  C
  O3176      1.0000 0.24296  0.51363  0.44977  Biso   1.000  O
  C3177      1.0000 0.25659  0.50000  0.44073  Biso   1.000  C
  C3178      1.0000 0.25659  0.50000  0.41582  Biso   1.000  C
  S3179      1.0000 0.26910  0.48749  0.40136  Biso   1.000  S
  C3180      1.0000 0.26465  0.49194  0.37829  Biso   1.000  C
  O3181      1.0000 0.24296  0.51363  0.30681  Biso   1.000  O
  C3182      1.0000 0.26910  0.48749  0.35522  Biso   1.000  C
  H3183      1.0000 0.27956  0.47703  0.35055  Biso   1.000  H
  O3184      1.0000 0.27022  0.48637  0.44977  Biso   1.000  O
  C3185      1.0000 0.24408  0.51251  0.40136  Biso   1.000  C
  H3186      1.0000 0.23362  0.52297  0.40603  Biso   1.000  H
  O3187      1.0000 0.20637  0.51363  0.27022  Biso   1.000  O
  C3188      1.0000 0.19732  0.50000  0.25659  Biso   1.000  C
  C3189      1.0000 0.17242  0.50000  0.25659  Biso   1.000  C
  S3190      1.0000 0.15796  0.48749  0.24408  Biso   1.000  S
  C3191      1.0000 0.13489  0.49194  0.24853  Biso   1.000  C
  O3192      1.0000 0.06341  0.48637  0.24296  Biso   1.000  O
  C3193      1.0000 0.07245  0.50000  0.25659  Biso   1.000  C
  C3194      1.0000 0.09736  0.50000  0.25659  Biso   1.000  C
  S3195      1.0000 0.11182  0.51251  0.26910  Biso   1.000  S
  C3196      1.0000 0.13489  0.50806  0.26464  Biso   1.000  C
  C3197      1.0000 0.15796  0.51251  0.26910  Biso   1.000  C
  H3198      1.0000 0.16263  0.52297  0.27956  Biso   1.000  H
  C3199      1.0000 0.11182  0.48749  0.24408  Biso   1.000  C
  H3200      1.0000 0.10715  0.47703  0.23362  Biso   1.000  H
  H3201      1.0000 0.23362  0.40604  0.23362  Biso   1.000  H
  H3202      1.0000 0.27956  0.35056  0.27956  Biso   1.000  H
  O3203      1.0000 0.24296  0.55023  0.27022  Biso   1.000  O
  H3204      1.0000 0.91922  0.52297  0.23362  Biso   1.000  H
  H3205      1.0000 0.23362  0.52297  0.35055  Biso   1.000  H
  H3206      1.0000 0.27956  0.47703  0.40603  Biso   1.000  H
  H3207      1.0000 0.35056  0.47703  0.27956  Biso   1.000  H
  C3208      1.0000 0.25659  0.55927  0.25659  Biso   1.000  C
  C3209      1.0000 0.25659  0.58417  0.25659  Biso   1.000  C
  S3210      1.0000 0.24408  0.59863  0.26910  Biso   1.000  S
  C3211      1.0000 0.24854  0.13489  0.26464  Biso   1.000  C
  C3212      1.0000 0.26465  0.13489  0.24853  Biso   1.000  C
  C3213      1.0000 0.26910  0.59864  0.24408  Biso   1.000  C
  H3214      1.0000 0.27956  0.59396  0.23362  Biso   1.000  H
  C3215      1.0000 0.25659  0.19732  0.25659  Biso   1.000  C
  C3216      1.0000 0.25659  0.17242  0.25659  Biso   1.000  C
  S3217      1.0000 0.26910  0.15796  0.24408  Biso   1.000  S
  O3218      1.0000 0.27022  0.20637  0.24296  Biso   1.000  O
  C3219      1.0000 0.24408  0.15796  0.26910  Biso   1.000  C
  H3220      1.0000 0.23362  0.16263  0.27956  Biso   1.000  H
  Zn3221      1.0000 0.27527  0.23791  0.23790  Biso   1.000  Zn
  H3222      1.0000 0.91922  0.27956  0.47703  Biso   1.000  H
  C3223      1.0000 0.25659  0.25659  0.55926  Biso   1.000  C
  C3224      1.0000 0.25659  0.25659  0.58417  Biso   1.000  C
  S3225      1.0000 0.26910  0.24408  0.59863  Biso   1.000  S
  C3226      1.0000 0.26465  0.24853  0.13488  Biso   1.000  C
  C3227      1.0000 0.24854  0.26465  0.13488  Biso   1.000  C
  C3228      1.0000 0.24408  0.26910  0.59863  Biso   1.000  C
  H3229      1.0000 0.23362  0.27956  0.59396  Biso   1.000  H
  H3230      1.0000 0.35056  0.23362  0.52296  Biso   1.000  H
  H3231      1.0000 0.27956  0.35056  0.47703  Biso   1.000  H
  H3232      1.0000 0.23362  0.40604  0.52296  Biso   1.000  H
  O3233      1.0000 0.27022  0.24296  0.20636  Biso   1.000  O
  C3234      1.0000 0.25659  0.25659  0.19732  Biso   1.000  C
  C3235      1.0000 0.25659  0.25659  0.17241  Biso   1.000  C
  S3236      1.0000 0.24408  0.26910  0.15795  Biso   1.000  S
  O3237      1.0000 0.24296  0.27022  0.20636  Biso   1.000  O
  C3238      1.0000 0.26910  0.24408  0.15795  Biso   1.000  C
  H3239      1.0000 0.27956  0.23362  0.16262  Biso   1.000  H
  H3240      1.0000 0.99021  0.23362  0.59396  Biso   1.000  H
  H3241      1.0000 0.03615  0.27956  0.16262  Biso   1.000  H
  C3242      1.0000 0.95392  0.25659  0.25659  Biso   1.000  C
  C3243      1.0000 0.92901  0.25659  0.25659  Biso   1.000  C
  S3244      1.0000 0.91455  0.26910  0.26910  Biso   1.000  S
  C3245      1.0000 0.89148  0.26465  0.26464  Biso   1.000  C
  C3246      1.0000 0.89148  0.24853  0.24853  Biso   1.000  C
  C3247      1.0000 0.91455  0.24408  0.24408  Biso   1.000  C
  H3248      1.0000 0.91922  0.23362  0.23362  Biso   1.000  H
  H3249      1.0000 0.99021  0.35056  0.27956  Biso   1.000  H
  H3250      1.0000 0.03615  0.40604  0.23362  Biso   1.000  H
  C3251      1.0000 0.31586  0.25659  0.25659  Biso   1.000  C
  C3252      1.0000 0.34076  0.25659  0.25659  Biso   1.000  C
  S3253      1.0000 0.35523  0.24408  0.24408  Biso   1.000  S
  O3254      1.0000 0.30682  0.24296  0.24296  Biso   1.000  O
  C3255      1.0000 0.35523  0.26910  0.26910  Biso   1.000  C
  H3256      1.0000 0.35056  0.27956  0.27956  Biso   1.000  H
  H3257      1.0000 0.23362  0.47703  0.59396  Biso   1.000  H
  H3258      1.0000 0.27956  0.52297  0.16262  Biso   1.000  H
  H3259      1.0000 0.16263  0.47703  0.23362  Biso   1.000  H
  H3260      1.0000 0.10715  0.52297  0.27956  Biso   1.000  H
  H3261      1.0000 0.23362  0.59396  0.27956  Biso   1.000  H
  H3262      1.0000 0.27956  0.16263  0.23362  Biso   1.000  H
  H3263      1.0000 0.27956  0.59396  0.52297  Biso   1.000  H
  H3264      1.0000 0.27956  0.23362  0.59396  Biso   1.000  H
  H3265      1.0000 0.16263  0.27956  0.52296  Biso   1.000  H
  H3266      1.0000 0.10715  0.23362  0.47703  Biso   1.000  H
  H3267      1.0000 0.23362  0.16263  0.47703  Biso   1.000  H
  H3268      1.0000 0.23362  0.27956  0.16262  Biso   1.000  H
  H3269      1.0000 0.03615  0.59396  0.27956  Biso   1.000  H
  H3270      1.0000 0.03615  0.23362  0.35055  Biso   1.000  H
  H3271      1.0000 0.99021  0.27956  0.40603  Biso   1.000  H
  H3272      1.0000 0.91922  0.27956  0.27956  Biso   1.000  H
  H3273      1.0000 0.99021  0.16263  0.23362  Biso   1.000  H
  H3274      1.0000 0.35056  0.23362  0.23362  Biso   1.000  H
  C3275      1.0000 0.01318  0.50000  0.55926  Biso   1.000  C
  C3276      1.0000 0.01318  0.50000  0.58417  Biso   1.000  C
  S3277      1.0000 0.02569  0.48749  0.59863  Biso   1.000  S
  C3278      1.0000 0.02124  0.49194  0.13488  Biso   1.000  C
  C3279      1.0000 0.00513  0.50806  0.13488  Biso   1.000  C
  C3280      1.0000 0.00067  0.51251  0.59863  Biso   1.000  C
  H3281      1.0000 0.99021  0.52297  0.59396  Biso   1.000  H
  H3282      1.0000 0.10715  0.47703  0.52296  Biso   1.000  H
  H3283      1.0000 0.16263  0.52297  0.47703  Biso   1.000  H
  H3284      1.0000 0.03615  0.59396  0.47703  Biso   1.000  H
  O3285      1.0000 0.02681  0.48637  0.20636  Biso   1.000  O
  C3286      1.0000 0.01318  0.50000  0.19732  Biso   1.000  C
  C3287      1.0000 0.01318  0.50000  0.17241  Biso   1.000  C
  S3288      1.0000 0.00067  0.51251  0.15795  Biso   1.000  S
  O3289      1.0000 0.99956  0.51363  0.20636  Biso   1.000  O
  C3290      1.0000 0.02569  0.48749  0.15795  Biso   1.000  C
  H3291      1.0000 0.03615  0.47703  0.16262  Biso   1.000  H
  H3292      1.0000 0.99021  0.16263  0.52296  Biso   1.000  H
  H3293      1.0000 0.03615  0.47703  0.59396  Biso   1.000  H
  H3294      1.0000 0.91922  0.52297  0.52297  Biso   1.000  H
  H3295      1.0000 0.99021  0.40604  0.47703  Biso   1.000  H
  H3296      1.0000 0.03615  0.35056  0.52297  Biso   1.000  H
  H3297      1.0000 0.35056  0.47703  0.47703  Biso   1.000  H
  Zn3298      1.0000 0.48132  0.48132  0.48131  Biso   1.000  Zn
  O3299      1.0000 0.50000  0.50000  0.50000  Biso   1.000  O
  O3300      1.0000 0.48637  0.48637  0.44977  Biso   1.000  O
  C3301      1.0000 0.50000  0.50000  0.44073  Biso   1.000  C
  C3302      1.0000 0.50000  0.50000  0.41582  Biso   1.000  C
  S3303      1.0000 0.51251  0.51251  0.40136  Biso   1.000  S
  C3304      1.0000 0.50806  0.50806  0.37829  Biso   1.000  C
  O3305      1.0000 0.51363  0.51363  0.30681  Biso   1.000  O
  C3306      1.0000 0.50000  0.50000  0.31585  Biso   1.000  C
  C3307      1.0000 0.50000  0.50000  0.34076  Biso   1.000  C
  S3308      1.0000 0.48749  0.48749  0.35522  Biso   1.000  S
  C3309      1.0000 0.49194  0.49194  0.37829  Biso   1.000  C
  O3310      1.0000 0.51363  0.51363  0.44977  Biso   1.000  O
  C3311      1.0000 0.48749  0.48749  0.40136  Biso   1.000  C
  H3312      1.0000 0.47703  0.47703  0.40603  Biso   1.000  H
  O3313      1.0000 0.48637  0.48637  0.30681  Biso   1.000  O
  C3314      1.0000 0.51251  0.51251  0.35522  Biso   1.000  C
  H3315      1.0000 0.52297  0.52297  0.35055  Biso   1.000  H
  Zn3316      1.0000 0.51868  0.51868  0.48131  Biso   1.000  Zn
  O3317      1.0000 0.55023  0.51363  0.48637  Biso   1.000  O
  C3318      1.0000 0.55927  0.50000  0.50000  Biso   1.000  C
  C3319      1.0000 0.58417  0.50000  0.50000  Biso   1.000  C
  S3320      1.0000 0.59864  0.48749  0.51251  Biso   1.000  S
  C3321      1.0000 0.62171  0.49194  0.50805  Biso   1.000  C
  O3322      1.0000 0.69318  0.48637  0.51362  Biso   1.000  O
  C3323      1.0000 0.68414  0.50000  0.50000  Biso   1.000  C
  C3324      1.0000 0.65924  0.50000  0.50000  Biso   1.000  C
  S3325      1.0000 0.64478  0.51251  0.48748  Biso   1.000  S
  C3326      1.0000 0.62171  0.50806  0.49194  Biso   1.000  C
  O3327      1.0000 0.55023  0.48637  0.51362  Biso   1.000  O
  C3328      1.0000 0.59864  0.51251  0.48748  Biso   1.000  C
  H3329      1.0000 0.59396  0.52297  0.47703  Biso   1.000  H
  O3330      1.0000 0.69318  0.51363  0.48637  Biso   1.000  O
  C3331      1.0000 0.64478  0.48749  0.51251  Biso   1.000  C
  H3332      1.0000 0.64945  0.47703  0.52296  Biso   1.000  H
  Zn3333      1.0000 0.51868  0.48132  0.51868  Biso   1.000  Zn
  O3334      1.0000 0.51363  0.44977  0.51362  Biso   1.000  O
  C3335      1.0000 0.50000  0.44073  0.50000  Biso   1.000  C
  C3336      1.0000 0.50000  0.41583  0.50000  Biso   1.000  C
  S3337      1.0000 0.48749  0.40137  0.48748  Biso   1.000  S
  C3338      1.0000 0.49194  0.37830  0.49194  Biso   1.000  C
  O3339      1.0000 0.48637  0.30682  0.48637  Biso   1.000  O
  C3340      1.0000 0.50000  0.31586  0.50000  Biso   1.000  C
  C3341      1.0000 0.50000  0.34076  0.50000  Biso   1.000  C
  S3342      1.0000 0.51251  0.35523  0.51251  Biso   1.000  S
  C3343      1.0000 0.50806  0.37830  0.50805  Biso   1.000  C
  O3344      1.0000 0.48637  0.44977  0.48637  Biso   1.000  O
  C3345      1.0000 0.51251  0.40137  0.51251  Biso   1.000  C
  H3346      1.0000 0.52297  0.40604  0.52296  Biso   1.000  H
  O3347      1.0000 0.51363  0.30682  0.51362  Biso   1.000  O
  C3348      1.0000 0.48749  0.35523  0.48748  Biso   1.000  C
  H3349      1.0000 0.47703  0.35056  0.47703  Biso   1.000  H
  Zn3350      1.0000 0.48132  0.48132  0.27527  Biso   1.000  Zn
  Zn3351      1.0000 0.48132  0.27527  0.48131  Biso   1.000  Zn
  Zn3352      1.0000 0.72473  0.48132  0.51868  Biso   1.000  Zn
  Zn3353      1.0000 0.51868  0.27527  0.51868  Biso   1.000  Zn
  Zn3354      1.0000 0.72473  0.51868  0.48131  Biso   1.000  Zn
  Zn3355      1.0000 0.51868  0.51868  0.27527  Biso   1.000  Zn
  Zn3356      1.0000 0.48132  0.51868  0.51868  Biso   1.000  Zn
  O3357      1.0000 0.50000  0.50000  0.25659  Biso   1.000  O
  O3358      1.0000 0.48637  0.44977  0.27022  Biso   1.000  O
  O3359      1.0000 0.51363  0.48637  0.55022  Biso   1.000  O
  O3360      1.0000 0.44977  0.48637  0.27022  Biso   1.000  O
  O3361      1.0000 0.44977  0.48637  0.48637  Biso   1.000  O
  O3362      1.0000 0.51363  0.55023  0.48637  Biso   1.000  O
  C3363      1.0000 0.75147  0.50806  0.13488  Biso   1.000  C
  O3364      1.0000 0.75704  0.51363  0.55022  Biso   1.000  O
  C3365      1.0000 0.74341  0.50000  0.55926  Biso   1.000  C
  C3366      1.0000 0.74341  0.50000  0.58417  Biso   1.000  C
  S3367      1.0000 0.73090  0.48749  0.59863  Biso   1.000  S
  C3368      1.0000 0.73535  0.49194  0.13488  Biso   1.000  C
  O3369      1.0000 0.72978  0.48637  0.55022  Biso   1.000  O
  C3370      1.0000 0.75592  0.51251  0.59863  Biso   1.000  C
  H3371      1.0000 0.76638  0.52297  0.59396  Biso   1.000  H
  Zn3372      1.0000 0.76209  0.51868  0.51868  Biso   1.000  Zn
  O3373      1.0000 0.74341  0.50000  0.50000  Biso   1.000  O
  O3374      1.0000 0.72978  0.44977  0.51362  Biso   1.000  O
  C3375      1.0000 0.37830  0.49194  0.26464  Biso   1.000  C
  C3376      1.0000 0.44073  0.50000  0.25659  Biso   1.000  C
  C3377      1.0000 0.41583  0.50000  0.25659  Biso   1.000  C
  S3378      1.0000 0.40137  0.51251  0.24408  Biso   1.000  S
  C3379      1.0000 0.37830  0.50806  0.24853  Biso   1.000  C
  O3380      1.0000 0.44977  0.51363  0.24296  Biso   1.000  O
  C3381      1.0000 0.40137  0.48749  0.26910  Biso   1.000  C
  H3382      1.0000 0.40604  0.47703  0.27956  Biso   1.000  H
  Zn3383      1.0000 0.48132  0.51868  0.23790  Biso   1.000  Zn
  Zn3384      1.0000 0.72473  0.48132  0.23790  Biso   1.000  Zn
  O3385      1.0000 0.74341  0.50000  0.25659  Biso   1.000  O
  O3386      1.0000 0.72978  0.48637  0.20636  Biso   1.000  O
  C3387      1.0000 0.74341  0.50000  0.19732  Biso   1.000  C
  C3388      1.0000 0.74341  0.50000  0.17241  Biso   1.000  C
  S3389      1.0000 0.75592  0.51251  0.15795  Biso   1.000  S
  O3390      1.0000 0.75704  0.51363  0.20636  Biso   1.000  O
  C3391      1.0000 0.73090  0.48749  0.15795  Biso   1.000  C
  H3392      1.0000 0.72044  0.47703  0.16262  Biso   1.000  H
  Zn3393      1.0000 0.76209  0.51868  0.23790  Biso   1.000  Zn
  O3394      1.0000 0.79364  0.51363  0.24296  Biso   1.000  O
  C3395      1.0000 0.80268  0.50000  0.25659  Biso   1.000  C
  C3396      1.0000 0.82758  0.50000  0.25659  Biso   1.000  C
  S3397      1.0000 0.84204  0.48749  0.26910  Biso   1.000  S
  O3398      1.0000 0.79364  0.48637  0.27022  Biso   1.000  O
  C3399      1.0000 0.84204  0.51251  0.24408  Biso   1.000  C
  H3400      1.0000 0.83737  0.52297  0.23362  Biso   1.000  H
  Zn3401      1.0000 0.76209  0.48132  0.27527  Biso   1.000  Zn
  O3402      1.0000 0.75704  0.44977  0.27022  Biso   1.000  O
  C3403      1.0000 0.74341  0.44073  0.25659  Biso   1.000  C
  C3404      1.0000 0.74341  0.41583  0.25659  Biso   1.000  C
  S3405      1.0000 0.73090  0.40137  0.24408  Biso   1.000  S
  C3406      1.0000 0.73535  0.37830  0.24853  Biso   1.000  C
  O3407      1.0000 0.72978  0.30682  0.24296  Biso   1.000  O
  C3408      1.0000 0.74341  0.31586  0.25659  Biso   1.000  C
  C3409      1.0000 0.74341  0.34076  0.25659  Biso   1.000  C
  S3410      1.0000 0.75592  0.35523  0.26910  Biso   1.000  S
  C3411      1.0000 0.75147  0.37830  0.26464  Biso   1.000  C
  O3412      1.0000 0.72978  0.44977  0.24296  Biso   1.000  O
  C3413      1.0000 0.75592  0.40137  0.26910  Biso   1.000  C
  H3414      1.0000 0.76638  0.40604  0.27956  Biso   1.000  H
  O3415      1.0000 0.75704  0.30682  0.27022  Biso   1.000  O
  C3416      1.0000 0.73090  0.35523  0.24408  Biso   1.000  C
  H3417      1.0000 0.72044  0.35056  0.23362  Biso   1.000  H
  Zn3418      1.0000 0.72473  0.27527  0.23790  Biso   1.000  Zn
  Zn3419      1.0000 0.76209  0.27527  0.27527  Biso   1.000  Zn
  Zn3420      1.0000 0.72473  0.51868  0.27527  Biso   1.000  Zn
  O3421      1.0000 0.75704  0.48637  0.30681  Biso   1.000  O
  O3422      1.0000 0.69318  0.48637  0.24296  Biso   1.000  O
  O3423      1.0000 0.75704  0.55023  0.24296  Biso   1.000  O
  C3424      1.0000 0.73535  0.13489  0.49194  Biso   1.000  C
  O3425      1.0000 0.72978  0.55023  0.48637  Biso   1.000  O
  C3426      1.0000 0.74341  0.55927  0.50000  Biso   1.000  C
  C3427      1.0000 0.74341  0.58417  0.50000  Biso   1.000  C
  S3428      1.0000 0.75592  0.59863  0.51251  Biso   1.000  S
  C3429      1.0000 0.75147  0.13489  0.50805  Biso   1.000  C
  O3430      1.0000 0.75704  0.55023  0.51362  Biso   1.000  O
  C3431      1.0000 0.73090  0.59863  0.48748  Biso   1.000  C
  H3432      1.0000 0.72044  0.59396  0.47703  Biso   1.000  H
  C3433      1.0000 0.37830  0.24853  0.50805  Biso   1.000  C
  O3434      1.0000 0.44977  0.24296  0.51362  Biso   1.000  O
  C3435      1.0000 0.44073  0.25659  0.50000  Biso   1.000  C
  C3436      1.0000 0.41583  0.25659  0.50000  Biso   1.000  C
  S3437      1.0000 0.40137  0.26910  0.48748  Biso   1.000  S
  C3438      1.0000 0.37830  0.26465  0.49194  Biso   1.000  C
  O3439      1.0000 0.44977  0.27022  0.48637  Biso   1.000  O
  C3440      1.0000 0.40137  0.24408  0.51251  Biso   1.000  C
  H3441      1.0000 0.40604  0.23362  0.52296  Biso   1.000  H
  Zn3442      1.0000 0.48132  0.23791  0.51868  Biso   1.000  Zn
  Zn3443      1.0000 0.72473  0.23791  0.48131  Biso   1.000  Zn
  O3444      1.0000 0.74341  0.25659  0.50000  Biso   1.000  O
  O3445      1.0000 0.72978  0.24296  0.44977  Biso   1.000  O
  C3446      1.0000 0.74341  0.25659  0.44073  Biso   1.000  C
  C3447      1.0000 0.74341  0.25659  0.41582  Biso   1.000  C
  S3448      1.0000 0.75592  0.26910  0.40136  Biso   1.000  S
  C3449      1.0000 0.75147  0.26465  0.37829  Biso   1.000  C
  O3450      1.0000 0.75704  0.27022  0.30681  Biso   1.000  O
  C3451      1.0000 0.74341  0.25659  0.31585  Biso   1.000  C
  C3452      1.0000 0.74341  0.25659  0.34076  Biso   1.000  C
  S3453      1.0000 0.73090  0.24408  0.35522  Biso   1.000  S
  C3454      1.0000 0.73535  0.24853  0.37829  Biso   1.000  C
  O3455      1.0000 0.75704  0.27022  0.44977  Biso   1.000  O
  C3456      1.0000 0.73090  0.24408  0.40136  Biso   1.000  C
  H3457      1.0000 0.72044  0.23362  0.40603  Biso   1.000  H
  O3458      1.0000 0.72978  0.24296  0.30681  Biso   1.000  O
  C3459      1.0000 0.75592  0.26910  0.35522  Biso   1.000  C
  H3460      1.0000 0.76638  0.27956  0.35055  Biso   1.000  H
  Zn3461      1.0000 0.76209  0.27527  0.48131  Biso   1.000  Zn
  O3462      1.0000 0.79364  0.27022  0.48637  Biso   1.000  O
  C3463      1.0000 0.80268  0.25659  0.50000  Biso   1.000  C
  C3464      1.0000 0.82758  0.25659  0.50000  Biso   1.000  C
  S3465      1.0000 0.84204  0.24408  0.51251  Biso   1.000  S
  O3466      1.0000 0.79364  0.24296  0.51362  Biso   1.000  O
  C3467      1.0000 0.84204  0.26910  0.48748  Biso   1.000  C
  H3468      1.0000 0.83737  0.27956  0.47703  Biso   1.000  H
  Zn3469      1.0000 0.76209  0.23791  0.51868  Biso   1.000  Zn
  O3470      1.0000 0.75704  0.20637  0.51362  Biso   1.000  O
  C3471      1.0000 0.74341  0.19732  0.50000  Biso   1.000  C
  C3472      1.0000 0.74341  0.17242  0.50000  Biso   1.000  C
  S3473      1.0000 0.73090  0.15796  0.48748  Biso   1.000  S
  O3474      1.0000 0.72978  0.20637  0.48637  Biso   1.000  O
  C3475      1.0000 0.75592  0.15796  0.51251  Biso   1.000  C
  H3476      1.0000 0.76638  0.16263  0.52296  Biso   1.000  H
  Zn3477      1.0000 0.72473  0.23791  0.27527  Biso   1.000  Zn
  Zn3478      1.0000 0.72473  0.27527  0.51868  Biso   1.000  Zn
  O3479      1.0000 0.74341  0.25659  0.25659  Biso   1.000  O
  O3480      1.0000 0.72978  0.20637  0.27022  Biso   1.000  O
  O3481      1.0000 0.75704  0.24296  0.55022  Biso   1.000  O
  O3482      1.0000 0.69318  0.24296  0.27022  Biso   1.000  O
  O3483      1.0000 0.69318  0.24296  0.48637  Biso   1.000  O
  O3484      1.0000 0.75704  0.30682  0.48637  Biso   1.000  O
  C3485      1.0000 0.49194  0.13489  0.24853  Biso   1.000  C
  O3486      1.0000 0.48637  0.55023  0.24296  Biso   1.000  O
  C3487      1.0000 0.50000  0.55927  0.25659  Biso   1.000  C
  C3488      1.0000 0.50000  0.58417  0.25659  Biso   1.000  C
  S3489      1.0000 0.51251  0.59863  0.26910  Biso   1.000  S
  C3490      1.0000 0.50806  0.13489  0.26464  Biso   1.000  C
  O3491      1.0000 0.51363  0.55023  0.27022  Biso   1.000  O
  C3492      1.0000 0.48749  0.59863  0.24408  Biso   1.000  C
  H3493      1.0000 0.47703  0.59396  0.23362  Biso   1.000  H
  C3494      1.0000 0.50806  0.26465  0.13488  Biso   1.000  C
  O3495      1.0000 0.51363  0.27022  0.55022  Biso   1.000  O
  C3496      1.0000 0.50000  0.25659  0.55926  Biso   1.000  C
  C3497      1.0000 0.50000  0.25659  0.58417  Biso   1.000  C
  S3498      1.0000 0.48749  0.24408  0.59863  Biso   1.000  S
  C3499      1.0000 0.49194  0.24853  0.13488  Biso   1.000  C
  O3500      1.0000 0.48637  0.24296  0.55022  Biso   1.000  O
  C3501      1.0000 0.51251  0.26910  0.59863  Biso   1.000  C
  H3502      1.0000 0.52297  0.27956  0.59396  Biso   1.000  H
  O3503      1.0000 0.50000  0.25659  0.50000  Biso   1.000  O
  O3504      1.0000 0.48637  0.20637  0.51362  Biso   1.000  O
  Zn3505      1.0000 0.48132  0.23791  0.23790  Biso   1.000  Zn
  O3506      1.0000 0.50000  0.25659  0.25659  Biso   1.000  O
  O3507      1.0000 0.48637  0.24296  0.20636  Biso   1.000  O
  C3508      1.0000 0.50000  0.25659  0.19732  Biso   1.000  C
  C3509      1.0000 0.50000  0.25659  0.17241  Biso   1.000  C
  S3510      1.0000 0.51251  0.26910  0.15795  Biso   1.000  S
  O3511      1.0000 0.51363  0.27022  0.20636  Biso   1.000  O
  C3512      1.0000 0.48749  0.24408  0.15795  Biso   1.000  C
  H3513      1.0000 0.47703  0.23362  0.16262  Biso   1.000  H
  Zn3514      1.0000 0.51868  0.27527  0.23790  Biso   1.000  Zn
  O3515      1.0000 0.55023  0.27022  0.24296  Biso   1.000  O
  C3516      1.0000 0.55927  0.25659  0.25659  Biso   1.000  C
  C3517      1.0000 0.58417  0.25659  0.25659  Biso   1.000  C
  S3518      1.0000 0.59864  0.24408  0.26910  Biso   1.000  S
  C3519      1.0000 0.62171  0.24853  0.26464  Biso   1.000  C
  C3520      1.0000 0.68414  0.25659  0.25659  Biso   1.000  C
  C3521      1.0000 0.65924  0.25659  0.25659  Biso   1.000  C
  S3522      1.0000 0.64478  0.26910  0.24408  Biso   1.000  S
  C3523      1.0000 0.62171  0.26465  0.24853  Biso   1.000  C
  O3524      1.0000 0.55023  0.24296  0.27022  Biso   1.000  O
  C3525      1.0000 0.59864  0.26910  0.24408  Biso   1.000  C
  H3526      1.0000 0.59396  0.27956  0.23362  Biso   1.000  H
  O3527      1.0000 0.69318  0.27022  0.24296  Biso   1.000  O
  C3528      1.0000 0.64478  0.24408  0.26910  Biso   1.000  C
  H3529      1.0000 0.64945  0.23362  0.27956  Biso   1.000  H
  Zn3530      1.0000 0.51868  0.23791  0.27527  Biso   1.000  Zn
  O3531      1.0000 0.51363  0.20637  0.27022  Biso   1.000  O
  C3532      1.0000 0.50000  0.19732  0.25659  Biso   1.000  C
  C3533      1.0000 0.50000  0.17242  0.25659  Biso   1.000  C
  S3534      1.0000 0.48749  0.15796  0.24408  Biso   1.000  S
  O3535      1.0000 0.48637  0.20637  0.24296  Biso   1.000  O
  C3536      1.0000 0.51251  0.15796  0.26910  Biso   1.000  C
  H3537      1.0000 0.52297  0.16263  0.27956  Biso   1.000  H
  Zn3538      1.0000 0.48132  0.27527  0.27527  Biso   1.000  Zn
  O3539      1.0000 0.51363  0.24296  0.30681  Biso   1.000  O
  O3540      1.0000 0.44977  0.24296  0.24296  Biso   1.000  O
  O3541      1.0000 0.51363  0.30682  0.24296  Biso   1.000  O
  H3542      1.0000 0.76638  0.27956  0.40603  Biso   1.000  H
  H3543      1.0000 0.72044  0.23362  0.35055  Biso   1.000  H
  C3544      1.0000 0.68414  0.25659  0.50000  Biso   1.000  C
  C3545      1.0000 0.65924  0.25659  0.50000  Biso   1.000  C
  S3546      1.0000 0.64478  0.26910  0.51251  Biso   1.000  S
  C3547      1.0000 0.62171  0.26465  0.50805  Biso   1.000  C
  O3548      1.0000 0.55023  0.27022  0.51362  Biso   1.000  O
  C3549      1.0000 0.55927  0.25659  0.50000  Biso   1.000  C
  C3550      1.0000 0.58417  0.25659  0.50000  Biso   1.000  C
  S3551      1.0000 0.59864  0.24408  0.48748  Biso   1.000  S
  C3552      1.0000 0.62171  0.24853  0.49194  Biso   1.000  C
  O3553      1.0000 0.69318  0.27022  0.51362  Biso   1.000  O
  C3554      1.0000 0.64478  0.24408  0.48748  Biso   1.000  C
  H3555      1.0000 0.64945  0.23362  0.47703  Biso   1.000  H
  O3556      1.0000 0.55023  0.24296  0.48637  Biso   1.000  O
  C3557      1.0000 0.59864  0.26910  0.51251  Biso   1.000  C
  H3558      1.0000 0.59396  0.27956  0.52296  Biso   1.000  H
  O3559      1.0000 0.72978  0.30682  0.51362  Biso   1.000  O
  C3560      1.0000 0.74341  0.31586  0.50000  Biso   1.000  C
  C3561      1.0000 0.74341  0.34076  0.50000  Biso   1.000  C
  S3562      1.0000 0.75592  0.35523  0.48748  Biso   1.000  S
  C3563      1.0000 0.75147  0.37830  0.49194  Biso   1.000  C
  O3564      1.0000 0.75704  0.44977  0.48637  Biso   1.000  O
  C3565      1.0000 0.74341  0.44073  0.50000  Biso   1.000  C
  C3566      1.0000 0.74341  0.41583  0.50000  Biso   1.000  C
  S3567      1.0000 0.73090  0.40137  0.51251  Biso   1.000  S
  C3568      1.0000 0.73535  0.37830  0.50805  Biso   1.000  C
  C3569      1.0000 0.73090  0.35523  0.51251  Biso   1.000  C
  H3570      1.0000 0.72044  0.35056  0.52296  Biso   1.000  H
  C3571      1.0000 0.75592  0.40137  0.48748  Biso   1.000  C
  H3572      1.0000 0.76638  0.40604  0.47703  Biso   1.000  H
  Zn3573      1.0000 0.76209  0.48132  0.48131  Biso   1.000  Zn
  Zn3574      1.0000 0.51868  0.23791  0.48131  Biso   1.000  Zn
  O3575      1.0000 0.72978  0.27022  0.55022  Biso   1.000  O
  O3576      1.0000 0.79364  0.27022  0.27022  Biso   1.000  O
  O3577      1.0000 0.48637  0.27022  0.30681  Biso   1.000  O
  C3578      1.0000 0.50000  0.25659  0.31585  Biso   1.000  C
  C3579      1.0000 0.50000  0.25659  0.34076  Biso   1.000  C
  S3580      1.0000 0.51251  0.24408  0.35522  Biso   1.000  S
  C3581      1.0000 0.50806  0.24853  0.37829  Biso   1.000  C
  O3582      1.0000 0.51363  0.24296  0.44977  Biso   1.000  O
  C3583      1.0000 0.50000  0.25659  0.44073  Biso   1.000  C
  C3584      1.0000 0.50000  0.25659  0.41582  Biso   1.000  C
  S3585      1.0000 0.48749  0.26910  0.40136  Biso   1.000  S
  C3586      1.0000 0.49194  0.26465  0.37829  Biso   1.000  C
  C3587      1.0000 0.48749  0.26910  0.35522  Biso   1.000  C
  H3588      1.0000 0.47703  0.27956  0.35055  Biso   1.000  H
  O3589      1.0000 0.48637  0.27022  0.44977  Biso   1.000  O
  C3590      1.0000 0.51251  0.24408  0.40136  Biso   1.000  C
  H3591      1.0000 0.52297  0.23362  0.40603  Biso   1.000  H
  H3592      1.0000 0.59396  0.23362  0.27956  Biso   1.000  H
  H3593      1.0000 0.64945  0.27956  0.23362  Biso   1.000  H
  C3594      1.0000 0.50000  0.31586  0.25659  Biso   1.000  C
  C3595      1.0000 0.50000  0.34076  0.25659  Biso   1.000  C
  S3596      1.0000 0.48749  0.35523  0.26910  Biso   1.000  S
  C3597      1.0000 0.49194  0.37830  0.26464  Biso   1.000  C
  C3598      1.0000 0.50000  0.44073  0.25659  Biso   1.000  C
  C3599      1.0000 0.50000  0.41583  0.25659  Biso   1.000  C
  S3600      1.0000 0.51251  0.40137  0.24408  Biso   1.000  S
  C3601      1.0000 0.50806  0.37830  0.24853  Biso   1.000  C
  O3602      1.0000 0.48637  0.30682  0.27022  Biso   1.000  O
  C3603      1.0000 0.51251  0.35523  0.24408  Biso   1.000  C
  H3604      1.0000 0.52297  0.35056  0.23362  Biso   1.000  H
  O3605      1.0000 0.51363  0.44977  0.24296  Biso   1.000  O
  C3606      1.0000 0.48749  0.40137  0.26910  Biso   1.000  C
  H3607      1.0000 0.47703  0.40604  0.27956  Biso   1.000  H
  Zn3608      1.0000 0.51868  0.48132  0.23790  Biso   1.000  Zn
  O3609      1.0000 0.44977  0.27022  0.27022  Biso   1.000  O
  H3610      1.0000 0.52297  0.52297  0.40603  Biso   1.000  H
  H3611      1.0000 0.47703  0.47703  0.35055  Biso   1.000  H
  C3612      1.0000 0.44073  0.50000  0.50000  Biso   1.000  C
  C3613      1.0000 0.41583  0.50000  0.50000  Biso   1.000  C
  S3614      1.0000 0.40137  0.51251  0.51251  Biso   1.000  S
  C3615      1.0000 0.37830  0.50806  0.50805  Biso   1.000  C
  C3616      1.0000 0.37830  0.49194  0.49194  Biso   1.000  C
  O3617      1.0000 0.44977  0.51363  0.51362  Biso   1.000  O
  C3618      1.0000 0.40137  0.48749  0.48748  Biso   1.000  C
  H3619      1.0000 0.40604  0.47703  0.47703  Biso   1.000  H
  O3620      1.0000 0.48637  0.55023  0.51362  Biso   1.000  O
  C3621      1.0000 0.50000  0.55927  0.50000  Biso   1.000  C
  C3622      1.0000 0.50000  0.58417  0.50000  Biso   1.000  C
  S3623      1.0000 0.51251  0.59863  0.48748  Biso   1.000  S
  C3624      1.0000 0.50806  0.13489  0.49194  Biso   1.000  C
  C3625      1.0000 0.49194  0.13489  0.50805  Biso   1.000  C
  C3626      1.0000 0.48749  0.59863  0.51251  Biso   1.000  C
  H3627      1.0000 0.47703  0.59396  0.52297  Biso   1.000  H
  O3628      1.0000 0.48637  0.51363  0.55022  Biso   1.000  O
  O3629      1.0000 0.55023  0.51363  0.27022  Biso   1.000  O
  O3630      1.0000 0.79364  0.51363  0.51362  Biso   1.000  O
  C3631      1.0000 0.80268  0.50000  0.50000  Biso   1.000  C
  C3632      1.0000 0.82758  0.50000  0.50000  Biso   1.000  C
  S3633      1.0000 0.84204  0.48749  0.48748  Biso   1.000  S
  O3634      1.0000 0.79364  0.48637  0.48637  Biso   1.000  O
  C3635      1.0000 0.84204  0.51251  0.51251  Biso   1.000  C
  H3636      1.0000 0.83737  0.52297  0.52296  Biso   1.000  H
  O3637      1.0000 0.51363  0.20637  0.48637  Biso   1.000  O
  C3638      1.0000 0.50000  0.19732  0.50000  Biso   1.000  C
  C3639      1.0000 0.50000  0.17242  0.50000  Biso   1.000  C
  S3640      1.0000 0.48749  0.15796  0.51251  Biso   1.000  S
  C3641      1.0000 0.51251  0.15796  0.48748  Biso   1.000  C
  H3642      1.0000 0.52297  0.16263  0.47703  Biso   1.000  H
  C3643      1.0000 0.74341  0.50000  0.31585  Biso   1.000  C
  C3644      1.0000 0.74341  0.50000  0.34076  Biso   1.000  C
  S3645      1.0000 0.73090  0.51251  0.35522  Biso   1.000  S
  C3646      1.0000 0.73535  0.50806  0.37829  Biso   1.000  C
  O3647      1.0000 0.72978  0.51363  0.44977  Biso   1.000  O
  C3648      1.0000 0.74341  0.50000  0.44073  Biso   1.000  C
  C3649      1.0000 0.74341  0.50000  0.41582  Biso   1.000  C
  S3650      1.0000 0.75592  0.48749  0.40136  Biso   1.000  S
  C3651      1.0000 0.75147  0.49194  0.37829  Biso   1.000  C
  O3652      1.0000 0.72978  0.51363  0.30681  Biso   1.000  O
  C3653      1.0000 0.75592  0.48749  0.35522  Biso   1.000  C
  H3654      1.0000 0.76638  0.47703  0.35055  Biso   1.000  H
  O3655      1.0000 0.75704  0.48637  0.44977  Biso   1.000  O
  C3656      1.0000 0.73090  0.51251  0.40136  Biso   1.000  C
  H3657      1.0000 0.72044  0.52297  0.40603  Biso   1.000  H
  O3658      1.0000 0.69318  0.51363  0.27022  Biso   1.000  O
  C3659      1.0000 0.68414  0.50000  0.25659  Biso   1.000  C
  C3660      1.0000 0.65924  0.50000  0.25659  Biso   1.000  C
  S3661      1.0000 0.64478  0.48749  0.24408  Biso   1.000  S
  C3662      1.0000 0.62171  0.49194  0.24853  Biso   1.000  C
  O3663      1.0000 0.55023  0.48637  0.24296  Biso   1.000  O
  C3664      1.0000 0.55927  0.50000  0.25659  Biso   1.000  C
  C3665      1.0000 0.58417  0.50000  0.25659  Biso   1.000  C
  S3666      1.0000 0.59864  0.51251  0.26910  Biso   1.000  S
  C3667      1.0000 0.62171  0.50806  0.26464  Biso   1.000  C
  C3668      1.0000 0.64478  0.51251  0.26910  Biso   1.000  C
  H3669      1.0000 0.64945  0.52297  0.27956  Biso   1.000  H
  C3670      1.0000 0.59864  0.48749  0.24408  Biso   1.000  C
  H3671      1.0000 0.59396  0.47703  0.23362  Biso   1.000  H
  H3672      1.0000 0.72044  0.40604  0.23362  Biso   1.000  H
  H3673      1.0000 0.76638  0.35056  0.27956  Biso   1.000  H
  O3674      1.0000 0.72978  0.55023  0.27022  Biso   1.000  O
  H3675      1.0000 0.40604  0.52297  0.23362  Biso   1.000  H
  H3676      1.0000 0.72044  0.52297  0.35055  Biso   1.000  H
  H3677      1.0000 0.76638  0.47703  0.40603  Biso   1.000  H
  H3678      1.0000 0.83737  0.47703  0.27956  Biso   1.000  H
  C3679      1.0000 0.74341  0.55927  0.25659  Biso   1.000  C
  C3680      1.0000 0.74341  0.58417  0.25659  Biso   1.000  C
  S3681      1.0000 0.73090  0.59863  0.26910  Biso   1.000  S
  C3682      1.0000 0.73535  0.13489  0.26464  Biso   1.000  C
  C3683      1.0000 0.75147  0.13489  0.24853  Biso   1.000  C
  C3684      1.0000 0.75592  0.59863  0.24408  Biso   1.000  C
  H3685      1.0000 0.76638  0.59396  0.23362  Biso   1.000  H
  C3686      1.0000 0.74341  0.19732  0.25659  Biso   1.000  C
  C3687      1.0000 0.74341  0.17242  0.25659  Biso   1.000  C
  S3688      1.0000 0.75592  0.15796  0.24408  Biso   1.000  S
  O3689      1.0000 0.75704  0.20637  0.24296  Biso   1.000  O
  C3690      1.0000 0.73090  0.15796  0.26910  Biso   1.000  C
  H3691      1.0000 0.72044  0.16263  0.27956  Biso   1.000  H
  Zn3692      1.0000 0.76209  0.23791  0.23790  Biso   1.000  Zn
  H3693      1.0000 0.40604  0.27956  0.47703  Biso   1.000  H
  C3694      1.0000 0.74341  0.25659  0.55926  Biso   1.000  C
  C3695      1.0000 0.74341  0.25659  0.58417  Biso   1.000  C
  S3696      1.0000 0.75592  0.24408  0.59863  Biso   1.000  S
  C3697      1.0000 0.75147  0.24853  0.13488  Biso   1.000  C
  C3698      1.0000 0.73535  0.26465  0.13488  Biso   1.000  C
  C3699      1.0000 0.73090  0.26910  0.59863  Biso   1.000  C
  H3700      1.0000 0.72044  0.27956  0.59396  Biso   1.000  H
  H3701      1.0000 0.83737  0.23362  0.52296  Biso   1.000  H
  H3702      1.0000 0.76638  0.35056  0.47703  Biso   1.000  H
  H3703      1.0000 0.72044  0.40604  0.52296  Biso   1.000  H
  O3704      1.0000 0.75704  0.24296  0.20636  Biso   1.000  O
  C3705      1.0000 0.74341  0.25659  0.19732  Biso   1.000  C
  C3706      1.0000 0.74341  0.25659  0.17241  Biso   1.000  C
  S3707      1.0000 0.73090  0.26910  0.15795  Biso   1.000  S
  O3708      1.0000 0.72978  0.27022  0.20636  Biso   1.000  O
  C3709      1.0000 0.75592  0.24408  0.15795  Biso   1.000  C
  H3710      1.0000 0.76638  0.23362  0.16262  Biso   1.000  H
  H3711      1.0000 0.47703  0.23362  0.59396  Biso   1.000  H
  H3712      1.0000 0.52297  0.27956  0.16262  Biso   1.000  H
  C3713      1.0000 0.44073  0.25659  0.25659  Biso   1.000  C
  C3714      1.0000 0.41583  0.25659  0.25659  Biso   1.000  C
  S3715      1.0000 0.40137  0.26910  0.26910  Biso   1.000  S
  C3716      1.0000 0.37830  0.26465  0.26464  Biso   1.000  C
  C3717      1.0000 0.37830  0.24853  0.24853  Biso   1.000  C
  C3718      1.0000 0.40137  0.24408  0.24408  Biso   1.000  C
  H3719      1.0000 0.40604  0.23362  0.23362  Biso   1.000  H
  H3720      1.0000 0.47703  0.35056  0.27956  Biso   1.000  H
  H3721      1.0000 0.52297  0.40604  0.23362  Biso   1.000  H
  C3722      1.0000 0.80268  0.25659  0.25659  Biso   1.000  C
  C3723      1.0000 0.82758  0.25659  0.25659  Biso   1.000  C
  S3724      1.0000 0.84204  0.24408  0.24408  Biso   1.000  S
  O3725      1.0000 0.79364  0.24296  0.24296  Biso   1.000  O
  C3726      1.0000 0.84204  0.26910  0.26910  Biso   1.000  C
  H3727      1.0000 0.83737  0.27956  0.27956  Biso   1.000  H
  H3728      1.0000 0.72044  0.47703  0.59396  Biso   1.000  H
  H3729      1.0000 0.76638  0.52297  0.16262  Biso   1.000  H
  H3730      1.0000 0.64945  0.47703  0.23362  Biso   1.000  H
  H3731      1.0000 0.59396  0.52297  0.27956  Biso   1.000  H
  H3732      1.0000 0.72044  0.59396  0.27956  Biso   1.000  H
  H3733      1.0000 0.76638  0.16263  0.23362  Biso   1.000  H
  H3734      1.0000 0.76638  0.59396  0.52296  Biso   1.000  H
  H3735      1.0000 0.76638  0.23362  0.59396  Biso   1.000  H
  H3736      1.0000 0.64945  0.27956  0.52296  Biso   1.000  H
  H3737      1.0000 0.59396  0.23362  0.47703  Biso   1.000  H
  H3738      1.0000 0.72044  0.16263  0.47703  Biso   1.000  H
  H3739      1.0000 0.72044  0.27956  0.16262  Biso   1.000  H
  H3740      1.0000 0.52297  0.59396  0.27956  Biso   1.000  H
  H3741      1.0000 0.52297  0.23362  0.35055  Biso   1.000  H
  H3742      1.0000 0.47703  0.27956  0.40603  Biso   1.000  H
  H3743      1.0000 0.40604  0.27956  0.27956  Biso   1.000  H
  H3744      1.0000 0.47703  0.16263  0.23362  Biso   1.000  H
  H3745      1.0000 0.83737  0.23362  0.23362  Biso   1.000  H
  C3746      1.0000 0.50000  0.50000  0.55926  Biso   1.000  C
  C3747      1.0000 0.50000  0.50000  0.58417  Biso   1.000  C
  S3748      1.0000 0.51251  0.48749  0.59863  Biso   1.000  S
  C3749      1.0000 0.50806  0.49194  0.13488  Biso   1.000  C
  C3750      1.0000 0.49194  0.50806  0.13488  Biso   1.000  C
  C3751      1.0000 0.48749  0.51251  0.59863  Biso   1.000  C
  H3752      1.0000 0.47703  0.52297  0.59396  Biso   1.000  H
  H3753      1.0000 0.59396  0.47703  0.52296  Biso   1.000  H
  H3754      1.0000 0.64945  0.52297  0.47703  Biso   1.000  H
  H3755      1.0000 0.52297  0.59396  0.47703  Biso   1.000  H
  O3756      1.0000 0.51363  0.48637  0.20636  Biso   1.000  O
  C3757      1.0000 0.50000  0.50000  0.19732  Biso   1.000  C
  C3758      1.0000 0.50000  0.50000  0.17241  Biso   1.000  C
  S3759      1.0000 0.48749  0.51251  0.15795  Biso   1.000  S
  O3760      1.0000 0.48637  0.51363  0.20636  Biso   1.000  O
  C3761      1.0000 0.51251  0.48749  0.15795  Biso   1.000  C
  H3762      1.0000 0.52297  0.47703  0.16262  Biso   1.000  H
  H3763      1.0000 0.47703  0.16263  0.52296  Biso   1.000  H
  H3764      1.0000 0.52297  0.47703  0.59396  Biso   1.000  H
  H3765      1.0000 0.40604  0.52297  0.52297  Biso   1.000  H
  H3766      1.0000 0.47703  0.40604  0.47703  Biso   1.000  H
  H3767      1.0000 0.52297  0.35056  0.52296  Biso   1.000  H
  H3768      1.0000 0.83737  0.47703  0.47703  Biso   1.000  H
