data_image0
_cell_length_a       37.2914
_cell_length_b       37.2914
_cell_length_c       37.2914
_cell_angle_alpha    60
_cell_angle_beta     60
_cell_angle_gamma    60

_symmetry_space_group_name_H-M    "P 1"
_symmetry_int_tables_number       1

loop_
  _symmetry_equiv_pos_as_xyz
  'x, y, z'

loop_
  _atom_site_label
  _atom_site_occupancy
  _atom_site_fract_x
  _atom_site_fract_y
  _atom_site_fract_z
  _atom_site_thermal_displace_type
  _atom_site_B_iso_or_equiv
  _atom_site_type_symbol
  Cu1      1.0000 0.71704  0.50000  0.50005  Biso   1.000  Cu
  Cu2      1.0000 0.77428  0.49985  0.49987  Biso   1.000  Cu
  Cu3      1.0000 0.50009  0.71715  0.28274  Biso   1.000  Cu
  Cu4      1.0000 0.50021  0.77406  0.22630  Biso   1.000  Cu
  Cu5      1.0000 0.49997  0.28274  0.71734  Biso   1.000  Cu
  Cu6      1.0000 0.50036  0.22571  0.77403  Biso   1.000  Cu
  Cu7      1.0000 0.28283  0.50001  0.50000  Biso   1.000  Cu
  Cu8      1.0000 0.22592  0.49985  0.49978  Biso   1.000  Cu
  Cu9      1.0000 0.71758  0.49996  0.28252  Biso   1.000  Cu
  Cu10     1.0000 0.77502  0.49999  0.22475  Biso   1.000  Cu
  Cu11     1.0000 0.50014  0.28290  0.49996  Biso   1.000  Cu
  Cu12     1.0000 0.49970  0.22550  0.50017  Biso   1.000  Cu
  Cu13     1.0000 0.50003  0.71714  0.49991  Biso   1.000  Cu
  Cu14     1.0000 0.49982  0.77461  0.50012  Biso   1.000  Cu
  Cu15     1.0000 0.28301  0.50006  0.71704  Biso   1.000  Cu
  Cu16     1.0000 0.22544  0.49970  0.77450  Biso   1.000  Cu
  Cu17     1.0000 0.71702  0.28295  0.49994  Biso   1.000  Cu
  Cu18     1.0000 0.77486  0.22560  0.49971  Biso   1.000  Cu
  Cu19     1.0000 0.49996  0.49999  0.71761  Biso   1.000  Cu
  Cu20     1.0000 0.49995  0.49998  0.77570  Biso   1.000  Cu
  Cu21     1.0000 0.49989  0.50006  0.28241  Biso   1.000  Cu
  Cu22     1.0000 0.49991  0.50004  0.22435  Biso   1.000  Cu
  Cu23     1.0000 0.28279  0.71710  0.50008  Biso   1.000  Cu
  Cu24     1.0000 0.22556  0.77488  0.49984  Biso   1.000  Cu
  H1       1.0000 0.85426  0.36599  0.52853  Biso   1.000  H
  H2       1.0000 0.98592  0.18522  0.52832  Biso   1.000  H
  H3       1.0000 0.05741  0.14586  0.53342  Biso   1.000  H
  H4       1.0000 0.36604  0.85404  0.25141  Biso   1.000  H
  H5       1.0000 0.18527  0.98586  0.30054  Biso   1.000  H
  H6       1.0000 0.14589  0.05736  0.26331  Biso   1.000  H
  H7       1.0000 0.52819  0.25134  0.85432  Biso   1.000  H
  H8       1.0000 0.52838  0.30053  0.98594  Biso   1.000  H
  H9       1.0000 0.53343  0.26329  0.05743  Biso   1.000  H
  H10      1.0000 0.25109  0.52870  0.36601  Biso   1.000  H
  H11      1.0000 0.30052  0.52834  0.18520  Biso   1.000  H
  H12      1.0000 0.26330  0.53344  0.14583  Biso   1.000  H
  H13      1.0000 0.85397  0.52835  0.25155  Biso   1.000  H
  H14      1.0000 0.98587  0.52836  0.30051  Biso   1.000  H
  H15      1.0000 0.05733  0.53349  0.26326  Biso   1.000  H
  H16      1.0000 0.36605  0.25129  0.52819  Biso   1.000  H
  H17      1.0000 0.18511  0.30051  0.52835  Biso   1.000  H
  H18      1.0000 0.14584  0.26324  0.53344  Biso   1.000  H
  H19      1.0000 0.52870  0.85423  0.36580  Biso   1.000  H
  H20      1.0000 0.52837  0.98598  0.18519  Biso   1.000  H
  H21      1.0000 0.53346  0.05744  0.14584  Biso   1.000  H
  H22      1.0000 0.25118  0.36597  0.85465  Biso   1.000  H
  H23      1.0000 0.30054  0.18513  0.98597  Biso   1.000  H
  H24      1.0000 0.26330  0.14583  0.05746  Biso   1.000  H
  H25      1.0000 0.85411  0.25111  0.36596  Biso   1.000  H
  H26      1.0000 0.98595  0.30049  0.18519  Biso   1.000  H
  H27      1.0000 0.05745  0.26327  0.14586  Biso   1.000  H
  H28      1.0000 0.36605  0.52834  0.85426  Biso   1.000  H
  H29      1.0000 0.18514  0.52836  0.98593  Biso   1.000  H
  H30      1.0000 0.14583  0.53347  0.05739  Biso   1.000  H
  H31      1.0000 0.52828  0.36611  0.25141  Biso   1.000  H
  H32      1.0000 0.52836  0.18514  0.30057  Biso   1.000  H
  H33      1.0000 0.53346  0.14586  0.26329  Biso   1.000  H
  H34      1.0000 0.25106  0.85421  0.52878  Biso   1.000  H
  H35      1.0000 0.30053  0.98593  0.52836  Biso   1.000  H
  H36      1.0000 0.26329  0.05742  0.53343  Biso   1.000  H
  H37      1.0000 0.63411  0.14587  0.47124  Biso   1.000  H
  H38      1.0000 0.81483  0.01408  0.47162  Biso   1.000  H
  H39      1.0000 0.85415  0.94262  0.46652  Biso   1.000  H
  H40      1.0000 0.14580  0.63413  0.74892  Biso   1.000  H
  H41      1.0000 0.01417  0.81476  0.69945  Biso   1.000  H
  H42      1.0000 0.94267  0.85411  0.73667  Biso   1.000  H
  H43      1.0000 0.74861  0.47159  0.14605  Biso   1.000  H
  H44      1.0000 0.69947  0.47163  0.01414  Biso   1.000  H
  H45      1.0000 0.73669  0.46653  0.94266  Biso   1.000  H
  H46      1.0000 0.47176  0.74870  0.63397  Biso   1.000  H
  H47      1.0000 0.47162  0.69947  0.81485  Biso   1.000  H
  H48      1.0000 0.46657  0.73670  0.85416  Biso   1.000  H
  H49      1.0000 0.47125  0.14594  0.74878  Biso   1.000  H
  H50      1.0000 0.47162  0.01405  0.69951  Biso   1.000  H
  H51      1.0000 0.46653  0.94258  0.73676  Biso   1.000  H
  H52      1.0000 0.74861  0.63402  0.47181  Biso   1.000  H
  H53      1.0000 0.69948  0.81483  0.47162  Biso   1.000  H
  H54      1.0000 0.73670  0.85416  0.46655  Biso   1.000  H
  H55      1.0000 0.14563  0.47176  0.63400  Biso   1.000  H
  H56      1.0000 0.01407  0.47158  0.81482  Biso   1.000  H
  H57      1.0000 0.94257  0.46656  0.85415  Biso   1.000  H
  H58      1.0000 0.63382  0.74866  0.14569  Biso   1.000  H
  H59      1.0000 0.81474  0.69951  0.01411  Biso   1.000  H
  H60      1.0000 0.85414  0.73669  0.94258  Biso   1.000  H
  H61      1.0000 0.74863  0.14557  0.63406  Biso   1.000  H
  H62      1.0000 0.69954  0.01404  0.81484  Biso   1.000  H
  H63      1.0000 0.73676  0.94253  0.85414  Biso   1.000  H
  H64      1.0000 0.47150  0.63400  0.14566  Biso   1.000  H
  H65      1.0000 0.47164  0.81483  0.01404  Biso   1.000  H
  H66      1.0000 0.46654  0.85416  0.94259  Biso   1.000  H
  H67      1.0000 0.63405  0.47147  0.74879  Biso   1.000  H
  H68      1.0000 0.81487  0.47161  0.69948  Biso   1.000  H
  H69      1.0000 0.85415  0.46656  0.73673  Biso   1.000  H
  H70      1.0000 0.14547  0.74873  0.47168  Biso   1.000  H
  H71      1.0000 0.01408  0.69950  0.47158  Biso   1.000  H
  H72      1.0000 0.94257  0.73672  0.46657  Biso   1.000  H
  H73      1.0000 0.14560  0.63400  0.47172  Biso   1.000  H
  H74      1.0000 0.01409  0.81485  0.47158  Biso   1.000  H
  H75      1.0000 0.94258  0.85416  0.46657  Biso   1.000  H
  H76      1.0000 0.63399  0.14563  0.74881  Biso   1.000  H
  H77      1.0000 0.81488  0.01404  0.69947  Biso   1.000  H
  H78      1.0000 0.85418  0.94253  0.73667  Biso   1.000  H
  H79      1.0000 0.47163  0.74855  0.14579  Biso   1.000  H
  H80      1.0000 0.47164  0.69947  0.01401  Biso   1.000  H
  H81      1.0000 0.46652  0.73673  0.94258  Biso   1.000  H
  H82      1.0000 0.74859  0.47179  0.63399  Biso   1.000  H
  H83      1.0000 0.69948  0.47160  0.81483  Biso   1.000  H
  H84      1.0000 0.73671  0.46655  0.85415  Biso   1.000  H
  H85      1.0000 0.14545  0.47169  0.74881  Biso   1.000  H
  H86      1.0000 0.01398  0.47159  0.69949  Biso   1.000  H
  H87      1.0000 0.94250  0.46659  0.73674  Biso   1.000  H
  H88      1.0000 0.63417  0.74884  0.47129  Biso   1.000  H
  H89      1.0000 0.81484  0.69949  0.47162  Biso   1.000  H
  H90      1.0000 0.85416  0.73673  0.46654  Biso   1.000  H
  H91      1.0000 0.47189  0.14531  0.63409  Biso   1.000  H
  H92      1.0000 0.47164  0.01402  0.81489  Biso   1.000  H
  H93      1.0000 0.46658  0.94254  0.85418  Biso   1.000  H
  H94      1.0000 0.74902  0.63442  0.14544  Biso   1.000  H
  H95      1.0000 0.69946  0.81497  0.01393  Biso   1.000  H
  H96      1.0000 0.73678  0.85418  0.94247  Biso   1.000  H
  H97      1.0000 0.14558  0.74854  0.63391  Biso   1.000  H
  H98      1.0000 0.01410  0.69943  0.81484  Biso   1.000  H
  H99      1.0000 0.94262  0.73670  0.85413  Biso   1.000  H
  H100     1.0000 0.63413  0.47151  0.14562  Biso   1.000  H
  H101     1.0000 0.81489  0.47163  0.01405  Biso   1.000  H
  H102     1.0000 0.85414  0.46653  0.94261  Biso   1.000  H
  H103     1.0000 0.47141  0.63411  0.74883  Biso   1.000  H
  H104     1.0000 0.47161  0.81487  0.69949  Biso   1.000  H
  H105     1.0000 0.46655  0.85414  0.73675  Biso   1.000  H
  H106     1.0000 0.74864  0.14549  0.47184  Biso   1.000  H
  H107     1.0000 0.69946  0.01409  0.47162  Biso   1.000  H
  H108     1.0000 0.73670  0.94261  0.46653  Biso   1.000  H
  H109     1.0000 0.36602  0.85446  0.52816  Biso   1.000  H
  H110     1.0000 0.18515  0.98596  0.52836  Biso   1.000  H
  H111     1.0000 0.14585  0.05744  0.53342  Biso   1.000  H
  H112     1.0000 0.85488  0.36578  0.25121  Biso   1.000  H
  H113     1.0000 0.98603  0.18507  0.30053  Biso   1.000  H
  H114     1.0000 0.05750  0.14582  0.26326  Biso   1.000  H
  H115     1.0000 0.25124  0.52869  0.85415  Biso   1.000  H
  H116     1.0000 0.30052  0.52836  0.98591  Biso   1.000  H
  H117     1.0000 0.26327  0.53349  0.05736  Biso   1.000  H
  H118     1.0000 0.52875  0.25116  0.36587  Biso   1.000  H
  H119     1.0000 0.52836  0.30054  0.18522  Biso   1.000  H
  H120     1.0000 0.53347  0.26330  0.14588  Biso   1.000  H
  H121     1.0000 0.52827  0.85438  0.25125  Biso   1.000  H
  H122     1.0000 0.52836  0.98605  0.30052  Biso   1.000  H
  H123     1.0000 0.53343  0.05750  0.26328  Biso   1.000  H
  H124     1.0000 0.25115  0.36598  0.52872  Biso   1.000  H
  H125     1.0000 0.30052  0.18521  0.52835  Biso   1.000  H
  H126     1.0000 0.26332  0.14584  0.53341  Biso   1.000  H
  H127     1.0000 0.85426  0.52859  0.36596  Biso   1.000  H
  H128     1.0000 0.98588  0.52834  0.18517  Biso   1.000  H
  H129     1.0000 0.05737  0.53342  0.14584  Biso   1.000  H
  H130     1.0000 0.36592  0.25129  0.85419  Biso   1.000  H
  H131     1.0000 0.18524  0.30051  0.98589  Biso   1.000  H
  H132     1.0000 0.14586  0.26332  0.05740  Biso   1.000  H
  H133     1.0000 0.25117  0.85429  0.36588  Biso   1.000  H
  H134     1.0000 0.30058  0.98596  0.18513  Biso   1.000  H
  H135     1.0000 0.26328  0.05743  0.14585  Biso   1.000  H
  H136     1.0000 0.52858  0.36585  0.85436  Biso   1.000  H
  H137     1.0000 0.52838  0.18509  0.98601  Biso   1.000  H
  H138     1.0000 0.53345  0.14586  0.05746  Biso   1.000  H
  H139     1.0000 0.36582  0.52844  0.25124  Biso   1.000  H
  H140     1.0000 0.18511  0.52834  0.30051  Biso   1.000  H
  H141     1.0000 0.14582  0.53348  0.26323  Biso   1.000  H
  H142     1.0000 0.85427  0.25116  0.52863  Biso   1.000  H
  H143     1.0000 0.98599  0.30054  0.52832  Biso   1.000  H
  H144     1.0000 0.05745  0.26327  0.53344  Biso   1.000  H
  H145     1.0000 0.74542  0.37132  0.51180  Biso   1.000  H
  H146     1.0000 0.37127  0.74521  0.37160  Biso   1.000  H
  H147     1.0000 0.51129  0.37170  0.74562  Biso   1.000  H
  H148     1.0000 0.37153  0.51173  0.37124  Biso   1.000  H
  H149     1.0000 0.74523  0.51172  0.37174  Biso   1.000  H
  H150     1.0000 0.37156  0.37141  0.51145  Biso   1.000  H
  H151     1.0000 0.51158  0.74547  0.37153  Biso   1.000  H
  H152     1.0000 0.37132  0.37174  0.74566  Biso   1.000  H
  H153     1.0000 0.74579  0.37172  0.37114  Biso   1.000  H
  H154     1.0000 0.37149  0.51168  0.74533  Biso   1.000  H
  H155     1.0000 0.51169  0.37138  0.37158  Biso   1.000  H
  H156     1.0000 0.37140  0.74556  0.51150  Biso   1.000  H
  H157     1.0000 0.62853  0.25448  0.48854  Biso   1.000  H
  H158     1.0000 0.25448  0.62839  0.62856  Biso   1.000  H
  H159     1.0000 0.62812  0.48847  0.25467  Biso   1.000  H
  H160     1.0000 0.48873  0.62838  0.62857  Biso   1.000  H
  H161     1.0000 0.48857  0.25446  0.62834  Biso   1.000  H
  H162     1.0000 0.62841  0.62857  0.48853  Biso   1.000  H
  H163     1.0000 0.25423  0.48900  0.62850  Biso   1.000  H
  H164     1.0000 0.62899  0.62817  0.25435  Biso   1.000  H
  H165     1.0000 0.62844  0.25433  0.62837  Biso   1.000  H
  H166     1.0000 0.48855  0.62830  0.25452  Biso   1.000  H
  H167     1.0000 0.62834  0.48873  0.62849  Biso   1.000  H
  H168     1.0000 0.25427  0.62848  0.48892  Biso   1.000  H
  H169     1.0000 0.11157  0.11159  0.55212  Biso   1.000  H
  H170     1.0000 0.11163  0.11155  0.22471  Biso   1.000  H
  H171     1.0000 0.55207  0.22476  0.11162  Biso   1.000  H
  H172     1.0000 0.22472  0.55206  0.11159  Biso   1.000  H
  H173     1.0000 0.11158  0.55200  0.22473  Biso   1.000  H
  H174     1.0000 0.11160  0.22469  0.55210  Biso   1.000  H
  H175     1.0000 0.55205  0.11162  0.11163  Biso   1.000  H
  H176     1.0000 0.22472  0.11157  0.11157  Biso   1.000  H
  H177     1.0000 0.11161  0.22473  0.11156  Biso   1.000  H
  H178     1.0000 0.11156  0.55206  0.11159  Biso   1.000  H
  H179     1.0000 0.55209  0.11162  0.22472  Biso   1.000  H
  H180     1.0000 0.22472  0.11157  0.55212  Biso   1.000  H
  H181     1.0000 0.88838  0.88840  0.44799  Biso   1.000  H
  H182     1.0000 0.88849  0.88840  0.77521  Biso   1.000  H
  H183     1.0000 0.77522  0.44799  0.88842  Biso   1.000  H
  H184     1.0000 0.44795  0.77525  0.88840  Biso   1.000  H
  H185     1.0000 0.44796  0.88838  0.77528  Biso   1.000  H
  H186     1.0000 0.77525  0.88841  0.44796  Biso   1.000  H
  H187     1.0000 0.88837  0.44798  0.88841  Biso   1.000  H
  H188     1.0000 0.88845  0.77526  0.88839  Biso   1.000  H
  H189     1.0000 0.77536  0.88839  0.88834  Biso   1.000  H
  H190     1.0000 0.44789  0.88840  0.88843  Biso   1.000  H
  H191     1.0000 0.88836  0.44792  0.77532  Biso   1.000  H
  H192     1.0000 0.88839  0.77528  0.44795  Biso   1.000  H
  C1       1.0000 0.77733  0.42041  0.51382  Biso   1.000  C
  C2       1.0000 0.79694  0.37363  0.52065  Biso   1.000  C
  C3       1.0000 0.83740  0.35001  0.52738  Biso   1.000  C
  C4       1.0000 0.00185  0.20159  0.53019  Biso   1.000  C
  C5       1.0000 0.04326  0.17884  0.53396  Biso   1.000  C
  C6       1.0000 0.42056  0.77730  0.28838  Biso   1.000  C
  C7       1.0000 0.37374  0.79683  0.30889  Biso   1.000  C
  C8       1.0000 0.35007  0.83723  0.28536  Biso   1.000  C
  C9       1.0000 0.20164  0.00180  0.26637  Biso   1.000  C
  C10      1.0000 0.17887  0.04321  0.24395  Biso   1.000  C
  C11      1.0000 0.51364  0.28852  0.77731  Biso   1.000  C
  C12      1.0000 0.52054  0.30888  0.79688  Biso   1.000  C
  C13      1.0000 0.52713  0.28530  0.83740  Biso   1.000  C
  C14      1.0000 0.53022  0.26637  0.00184  Biso   1.000  C
  C15      1.0000 0.53397  0.24394  0.04325  Biso   1.000  C
  C16      1.0000 0.28851  0.51363  0.42046  Biso   1.000  C
  C17      1.0000 0.30881  0.52054  0.37368  Biso   1.000  C
  C18      1.0000 0.28515  0.52737  0.35008  Biso   1.000  C
  C19      1.0000 0.26637  0.53018  0.20157  Biso   1.000  C
  C20      1.0000 0.24393  0.53396  0.17882  Biso   1.000  C
  C21      1.0000 0.77699  0.51376  0.28867  Biso   1.000  C
  C22      1.0000 0.79660  0.52073  0.30899  Biso   1.000  C
  C23      1.0000 0.83712  0.52731  0.28546  Biso   1.000  C
  C24      1.0000 0.00176  0.53023  0.26634  Biso   1.000  C
  C25      1.0000 0.04317  0.53401  0.24391  Biso   1.000  C
  C26      1.0000 0.42052  0.28828  0.51368  Biso   1.000  C
  C27      1.0000 0.37374  0.30871  0.52052  Biso   1.000  C
  C28      1.0000 0.35008  0.28526  0.52710  Biso   1.000  C
  C29      1.0000 0.20153  0.26636  0.53021  Biso   1.000  C
  C30      1.0000 0.17883  0.24390  0.53397  Biso   1.000  C
  C31      1.0000 0.51368  0.77752  0.42049  Biso   1.000  C
  C32      1.0000 0.52063  0.79698  0.37367  Biso   1.000  C
  C33      1.0000 0.52746  0.83737  0.34992  Biso   1.000  C
  C34      1.0000 0.53020  0.00189  0.20161  Biso   1.000  C
  C35      1.0000 0.53399  0.04329  0.17884  Biso   1.000  C
  C36      1.0000 0.28830  0.42059  0.77746  Biso   1.000  C
  C37      1.0000 0.30869  0.37376  0.79707  Biso   1.000  C
  C38      1.0000 0.28521  0.35014  0.83762  Biso   1.000  C
  C39      1.0000 0.26638  0.20152  0.00189  Biso   1.000  C
  C40      1.0000 0.24393  0.17880  0.04329  Biso   1.000  C
  C41      1.0000 0.77747  0.28851  0.42033  Biso   1.000  C
  C42      1.0000 0.79710  0.30893  0.37356  Biso   1.000  C
  C43      1.0000 0.83742  0.28519  0.34999  Biso   1.000  C
  C44      1.0000 0.00188  0.26633  0.20158  Biso   1.000  C
  C45      1.0000 0.04328  0.24391  0.17884  Biso   1.000  C
  C46      1.0000 0.42062  0.51359  0.77737  Biso   1.000  C
  C47      1.0000 0.37378  0.52057  0.79683  Biso   1.000  C
  C48      1.0000 0.35013  0.52724  0.83731  Biso   1.000  C
  C49      1.0000 0.20157  0.53018  0.00183  Biso   1.000  C
  C50      1.0000 0.17883  0.53398  0.04323  Biso   1.000  C
  C51      1.0000 0.51352  0.42067  0.28848  Biso   1.000  C
  C52      1.0000 0.52058  0.37377  0.30887  Biso   1.000  C
  C53      1.0000 0.52725  0.35014  0.28533  Biso   1.000  C
  C54      1.0000 0.53020  0.20156  0.26641  Biso   1.000  C
  C55      1.0000 0.53398  0.17884  0.24395  Biso   1.000  C
  C56      1.0000 0.28833  0.77746  0.51371  Biso   1.000  C
  C57      1.0000 0.30876  0.79701  0.52053  Biso   1.000  C
  C58      1.0000 0.28516  0.83741  0.52738  Biso   1.000  C
  C59      1.0000 0.26637  0.00185  0.53020  Biso   1.000  C
  C60      1.0000 0.24393  0.04325  0.53398  Biso   1.000  C
  C61      1.0000 0.57938  0.22247  0.48643  Biso   1.000  C
  C62      1.0000 0.62627  0.20303  0.47946  Biso   1.000  C
  C63      1.0000 0.64998  0.16264  0.47264  Biso   1.000  C
  C64      1.0000 0.79841  0.99816  0.46981  Biso   1.000  C
  C65      1.0000 0.82115  0.95677  0.46601  Biso   1.000  C
  C66      1.0000 0.22259  0.57933  0.71161  Biso   1.000  C
  C67      1.0000 0.20303  0.62619  0.69123  Biso   1.000  C
  C68      1.0000 0.16264  0.64989  0.71482  Biso   1.000  C
  C69      1.0000 0.99822  0.79838  0.73360  Biso   1.000  C
  C70      1.0000 0.95682  0.82113  0.75603  Biso   1.000  C
  C71      1.0000 0.71116  0.48641  0.22300  Biso   1.000  C
  C72      1.0000 0.69091  0.47943  0.20339  Biso   1.000  C
  C73      1.0000 0.71461  0.47273  0.16288  Biso   1.000  C
  C74      1.0000 0.73362  0.46979  0.99822  Biso   1.000  C
  C75      1.0000 0.75605  0.46601  0.95681  Biso   1.000  C
  C76      1.0000 0.48647  0.71159  0.57940  Biso   1.000  C
  C77      1.0000 0.47962  0.69118  0.62625  Biso   1.000  C
  C78      1.0000 0.47291  0.71473  0.64989  Biso   1.000  C
  C79      1.0000 0.46979  0.73363  0.79845  Biso   1.000  C
  C80      1.0000 0.46602  0.75606  0.82118  Biso   1.000  C
  C81      1.0000 0.48643  0.22258  0.71154  Biso   1.000  C
  C82      1.0000 0.47966  0.20298  0.69107  Biso   1.000  C
  C83      1.0000 0.47271  0.16265  0.71470  Biso   1.000  C
  C84      1.0000 0.46979  0.99815  0.73367  Biso   1.000  C
  C85      1.0000 0.46601  0.95674  0.75611  Biso   1.000  C
  C86      1.0000 0.71159  0.57930  0.48658  Biso   1.000  C
  C87      1.0000 0.69120  0.62623  0.47951  Biso   1.000  C
  C88      1.0000 0.71467  0.64988  0.47287  Biso   1.000  C
  C89      1.0000 0.73363  0.79844  0.46980  Biso   1.000  C
  C90      1.0000 0.75607  0.82119  0.46600  Biso   1.000  C
  C91      1.0000 0.22256  0.48644  0.57937  Biso   1.000  C
  C92      1.0000 0.20299  0.47960  0.62628  Biso   1.000  C
  C93      1.0000 0.16252  0.47294  0.64990  Biso   1.000  C
  C94      1.0000 0.99814  0.46975  0.79842  Biso   1.000  C
  C95      1.0000 0.95673  0.46599  0.82118  Biso   1.000  C
  C96      1.0000 0.57954  0.71132  0.22265  Biso   1.000  C
  C97      1.0000 0.62646  0.69106  0.20316  Biso   1.000  C
  C98      1.0000 0.64989  0.71469  0.16259  Biso   1.000  C
  C99      1.0000 0.79838  0.73366  0.99814  Biso   1.000  C
  C100     1.0000 0.82116  0.75606  0.95674  Biso   1.000  C
  C101     1.0000 0.71171  0.22245  0.57923  Biso   1.000  C
  C102     1.0000 0.69130  0.20297  0.62616  Biso   1.000  C
  C103     1.0000 0.71471  0.16254  0.64992  Biso   1.000  C
  C104     1.0000 0.73369  0.99812  0.79842  Biso   1.000  C
  C105     1.0000 0.75613  0.95672  0.82116  Biso   1.000  C
  C106     1.0000 0.48634  0.57937  0.22266  Biso   1.000  C
  C107     1.0000 0.47942  0.62621  0.20314  Biso   1.000  C
  C108     1.0000 0.47279  0.64983  0.16260  Biso   1.000  C
  C109     1.0000 0.46981  0.79845  0.99811  Biso   1.000  C
  C110     1.0000 0.46603  0.82117  0.95672  Biso   1.000  C
  C111     1.0000 0.57934  0.48638  0.71166  Biso   1.000  C
  C112     1.0000 0.62618  0.47954  0.69121  Biso   1.000  C
  C113     1.0000 0.64985  0.47283  0.71473  Biso   1.000  C
  C114     1.0000 0.79846  0.46978  0.73363  Biso   1.000  C
  C115     1.0000 0.82118  0.46600  0.75609  Biso   1.000  C
  C116     1.0000 0.22241  0.71170  0.48659  Biso   1.000  C
  C117     1.0000 0.20289  0.69129  0.47965  Biso   1.000  C
  C118     1.0000 0.16246  0.71476  0.47288  Biso   1.000  C
  C119     1.0000 0.99813  0.73365  0.46976  Biso   1.000  C
  C120     1.0000 0.95674  0.75610  0.46598  Biso   1.000  C
  C121     1.0000 0.22259  0.57937  0.48640  Biso   1.000  C
  C122     1.0000 0.20301  0.62626  0.47955  Biso   1.000  C
  C123     1.0000 0.16250  0.64987  0.47296  Biso   1.000  C
  C124     1.0000 0.99815  0.79845  0.46976  Biso   1.000  C
  C125     1.0000 0.95675  0.82119  0.46598  Biso   1.000  C
  C126     1.0000 0.57954  0.22253  0.71158  Biso   1.000  C
  C127     1.0000 0.62629  0.20300  0.69114  Biso   1.000  C
  C128     1.0000 0.64987  0.16249  0.71473  Biso   1.000  C
  C129     1.0000 0.79850  0.99811  0.73361  Biso   1.000  C
  C130     1.0000 0.82122  0.95671  0.75605  Biso   1.000  C
  C131     1.0000 0.48655  0.71167  0.22261  Biso   1.000  C
  C132     1.0000 0.47950  0.69120  0.20315  Biso   1.000  C
  C133     1.0000 0.47270  0.71465  0.16275  Biso   1.000  C
  C134     1.0000 0.46980  0.73363  0.99813  Biso   1.000  C
  C135     1.0000 0.46603  0.75607  0.95673  Biso   1.000  C
  C136     1.0000 0.71158  0.48660  0.57929  Biso   1.000  C
  C137     1.0000 0.69116  0.47956  0.62621  Biso   1.000  C
  C138     1.0000 0.71466  0.47284  0.64988  Biso   1.000  C
  C139     1.0000 0.73363  0.46978  0.79842  Biso   1.000  C
  C140     1.0000 0.75607  0.46600  0.82117  Biso   1.000  C
  C141     1.0000 0.22247  0.48641  0.71169  Biso   1.000  C
  C142     1.0000 0.20287  0.47968  0.69126  Biso   1.000  C
  C143     1.0000 0.16240  0.47296  0.71478  Biso   1.000  C
  C144     1.0000 0.99808  0.46976  0.73363  Biso   1.000  C
  C145     1.0000 0.95668  0.46600  0.75610  Biso   1.000  C
  C146     1.0000 0.57941  0.71173  0.48635  Biso   1.000  C
  C147     1.0000 0.62627  0.69126  0.47944  Biso   1.000  C
  C148     1.0000 0.64996  0.71479  0.47264  Biso   1.000  C
  C149     1.0000 0.79845  0.73364  0.46980  Biso   1.000  C
  C150     1.0000 0.82118  0.75609  0.46600  Biso   1.000  C
  C151     1.0000 0.48635  0.22250  0.57940  Biso   1.000  C
  C152     1.0000 0.47941  0.20300  0.62624  Biso   1.000  C
  C153     1.0000 0.47289  0.16243  0.64991  Biso   1.000  C
  C154     1.0000 0.46980  0.99811  0.79849  Biso   1.000  C
  C155     1.0000 0.46603  0.95671  0.82121  Biso   1.000  C
  C156     1.0000 0.71223  0.57936  0.22180  Biso   1.000  C
  C157     1.0000 0.69156  0.62619  0.20263  Biso   1.000  C
  C158     1.0000 0.71497  0.65011  0.16238  Biso   1.000  C
  C159     1.0000 0.73362  0.79852  0.99805  Biso   1.000  C
  C160     1.0000 0.75611  0.82120  0.95666  Biso   1.000  C
  C161     1.0000 0.22260  0.71161  0.57937  Biso   1.000  C
  C162     1.0000 0.20311  0.69119  0.62626  Biso   1.000  C
  C163     1.0000 0.16257  0.71464  0.64987  Biso   1.000  C
  C164     1.0000 0.99819  0.73359  0.79843  Biso   1.000  C
  C165     1.0000 0.95680  0.75605  0.82115  Biso   1.000  C
  C166     1.0000 0.57933  0.48643  0.22231  Biso   1.000  C
  C167     1.0000 0.62616  0.47946  0.20302  Biso   1.000  C
  C168     1.0000 0.64994  0.47276  0.16258  Biso   1.000  C
  C169     1.0000 0.79844  0.46979  0.99819  Biso   1.000  C
  C170     1.0000 0.82115  0.46601  0.95678  Biso   1.000  C
  C171     1.0000 0.48634  0.57942  0.71190  Biso   1.000  C
  C172     1.0000 0.47950  0.62626  0.69133  Biso   1.000  C
  C173     1.0000 0.47271  0.64997  0.71481  Biso   1.000  C
  C174     1.0000 0.46978  0.79844  0.73365  Biso   1.000  C
  C175     1.0000 0.46601  0.82116  0.75610  Biso   1.000  C
  C176     1.0000 0.71164  0.22261  0.48645  Biso   1.000  C
  C177     1.0000 0.69132  0.20308  0.47943  Biso   1.000  C
  C178     1.0000 0.71473  0.16252  0.47287  Biso   1.000  C
  C179     1.0000 0.73361  0.99814  0.46982  Biso   1.000  C
  C180     1.0000 0.75606  0.95676  0.46601  Biso   1.000  C
  C181     1.0000 0.42055  0.77748  0.51360  Biso   1.000  C
  C182     1.0000 0.37371  0.79703  0.52048  Biso   1.000  C
  C183     1.0000 0.35006  0.83751  0.52713  Biso   1.000  C
  C184     1.0000 0.20156  0.00187  0.53020  Biso   1.000  C
  C185     1.0000 0.17883  0.04326  0.53398  Biso   1.000  C
  C186     1.0000 0.77803  0.42051  0.28772  Biso   1.000  C
  C187     1.0000 0.79735  0.37369  0.30839  Biso   1.000  C
  C188     1.0000 0.83784  0.34991  0.28514  Biso   1.000  C
  C189     1.0000 0.00193  0.20149  0.26637  Biso   1.000  C
  C190     1.0000 0.04332  0.17879  0.24391  Biso   1.000  C
  C191     1.0000 0.28834  0.51358  0.77744  Biso   1.000  C
  C192     1.0000 0.30876  0.52059  0.79690  Biso   1.000  C
  C193     1.0000 0.28527  0.52739  0.83731  Biso   1.000  C
  C194     1.0000 0.26637  0.53018  0.00182  Biso   1.000  C
  C195     1.0000 0.24392  0.53399  0.04322  Biso   1.000  C
  C196     1.0000 0.51359  0.28838  0.42063  Biso   1.000  C
  C197     1.0000 0.52052  0.30879  0.37377  Biso   1.000  C
  C198     1.0000 0.52737  0.28521  0.35008  Biso   1.000  C
  C199     1.0000 0.53020  0.26638  0.20162  Biso   1.000  C
  C200     1.0000 0.53398  0.24395  0.17887  Biso   1.000  C
  C201     1.0000 0.51378  0.77737  0.28852  Biso   1.000  C
  C202     1.0000 0.52063  0.79690  0.30884  Biso   1.000  C
  C203     1.0000 0.52715  0.83750  0.28525  Biso   1.000  C
  C204     1.0000 0.53019  0.00195  0.26639  Biso   1.000  C
  C205     1.0000 0.53397  0.04334  0.24392  Biso   1.000  C
  C206     1.0000 0.28852  0.42051  0.51353  Biso   1.000  C
  C207     1.0000 0.30887  0.37371  0.52041  Biso   1.000  C
  C208     1.0000 0.28522  0.35005  0.52735  Biso   1.000  C
  C209     1.0000 0.26636  0.20158  0.53020  Biso   1.000  C
  C210     1.0000 0.24395  0.17883  0.53396  Biso   1.000  C
  C211     1.0000 0.77727  0.51378  0.42056  Biso   1.000  C
  C212     1.0000 0.79685  0.52058  0.37383  Biso   1.000  C
  C213     1.0000 0.83734  0.52730  0.35015  Biso   1.000  C
  C214     1.0000 0.00180  0.53022  0.20153  Biso   1.000  C
  C215     1.0000 0.04321  0.53397  0.17881  Biso   1.000  C
  C216     1.0000 0.42070  0.28836  0.77747  Biso   1.000  C
  C217     1.0000 0.37376  0.30882  0.79703  Biso   1.000  C
  C218     1.0000 0.35005  0.28529  0.83736  Biso   1.000  C
  C219     1.0000 0.20160  0.26634  0.00185  Biso   1.000  C
  C220     1.0000 0.17884  0.24392  0.04325  Biso   1.000  C
  C221     1.0000 0.28825  0.77744  0.42054  Biso   1.000  C
  C222     1.0000 0.30870  0.79687  0.37374  Biso   1.000  C
  C223     1.0000 0.28521  0.83736  0.35004  Biso   1.000  C
  C224     1.0000 0.26642  0.00185  0.20154  Biso   1.000  C
  C225     1.0000 0.24395  0.04325  0.17884  Biso   1.000  C
  C226     1.0000 0.51355  0.42060  0.77775  Biso   1.000  C
  C227     1.0000 0.52044  0.37378  0.79709  Biso   1.000  C
  C228     1.0000 0.52726  0.35002  0.83748  Biso   1.000  C
  C229     1.0000 0.53022  0.20154  0.00187  Biso   1.000  C
  C230     1.0000 0.53398  0.17884  0.04328  Biso   1.000  C
  C231     1.0000 0.42048  0.51374  0.28803  Biso   1.000  C
  C232     1.0000 0.37363  0.52068  0.30860  Biso   1.000  C
  C233     1.0000 0.34991  0.52735  0.28521  Biso   1.000  C
  C234     1.0000 0.20155  0.53019  0.26636  Biso   1.000  C
  C235     1.0000 0.17882  0.53397  0.24390  Biso   1.000  C
  C236     1.0000 0.77741  0.28836  0.51377  Biso   1.000  C
  C237     1.0000 0.79697  0.30877  0.52061  Biso   1.000  C
  C238     1.0000 0.83742  0.28521  0.52734  Biso   1.000  C
  C239     1.0000 0.00187  0.26638  0.53019  Biso   1.000  C
  C240     1.0000 0.04328  0.24393  0.53396  Biso   1.000  C
  C241     1.0000 0.77651  0.35284  0.51777  Biso   1.000  C
  C242     1.0000 0.85712  0.30609  0.53070  Biso   1.000  C
  C243     1.0000 0.90026  0.28402  0.53172  Biso   1.000  C
  C244     1.0000 0.93720  0.26599  0.53086  Biso   1.000  C
  C245     1.0000 0.98096  0.24462  0.52982  Biso   1.000  C
  C246     1.0000 0.06420  0.19874  0.53831  Biso   1.000  C
  C247     1.0000 0.10791  0.17350  0.54507  Biso   1.000  C
  C248     1.0000 0.35284  0.77634  0.35299  Biso   1.000  C
  C249     1.0000 0.30615  0.85701  0.30614  Biso   1.000  C
  C250     1.0000 0.28415  0.90018  0.28398  Biso   1.000  C
  C251     1.0000 0.26613  0.93714  0.26590  Biso   1.000  C
  C252     1.0000 0.24469  0.98092  0.24457  Biso   1.000  C
  C253     1.0000 0.19876  0.06416  0.19875  Biso   1.000  C
  C254     1.0000 0.17353  0.10789  0.17351  Biso   1.000  C
  C255     1.0000 0.51758  0.35304  0.77654  Biso   1.000  C
  C256     1.0000 0.53039  0.30616  0.85720  Biso   1.000  C
  C257     1.0000 0.53155  0.28402  0.90028  Biso   1.000  C
  C258     1.0000 0.53085  0.26593  0.93718  Biso   1.000  C
  C259     1.0000 0.52989  0.24457  0.98094  Biso   1.000  C
  C260     1.0000 0.53832  0.19876  0.06420  Biso   1.000  C
  C261     1.0000 0.54505  0.17355  0.10792  Biso   1.000  C
  C262     1.0000 0.35290  0.51780  0.35276  Biso   1.000  C
  C263     1.0000 0.30601  0.53066  0.30617  Biso   1.000  C
  C264     1.0000 0.28393  0.53170  0.28409  Biso   1.000  C
  C265     1.0000 0.26592  0.53087  0.26598  Biso   1.000  C
  C266     1.0000 0.24458  0.52983  0.24459  Biso   1.000  C
  C267     1.0000 0.19873  0.53831  0.19872  Biso   1.000  C
  C268     1.0000 0.17350  0.54505  0.17349  Biso   1.000  C
  C269     1.0000 0.77628  0.51779  0.35311  Biso   1.000  C
  C270     1.0000 0.85701  0.53056  0.30625  Biso   1.000  C
  C271     1.0000 0.90017  0.53160  0.28403  Biso   1.000  C
  C272     1.0000 0.93711  0.53082  0.26591  Biso   1.000  C
  C273     1.0000 0.98087  0.52985  0.24455  Biso   1.000  C
  C274     1.0000 0.06414  0.53832  0.19873  Biso   1.000  C
  C275     1.0000 0.10789  0.54503  0.17351  Biso   1.000  C
  C276     1.0000 0.35298  0.35285  0.51759  Biso   1.000  C
  C277     1.0000 0.30613  0.30616  0.53052  Biso   1.000  C
  C278     1.0000 0.28400  0.28408  0.53164  Biso   1.000  C
  C279     1.0000 0.26593  0.26601  0.53087  Biso   1.000  C
  C280     1.0000 0.24456  0.24461  0.52986  Biso   1.000  C
  C281     1.0000 0.19875  0.19871  0.53832  Biso   1.000  C
  C282     1.0000 0.17352  0.17348  0.54508  Biso   1.000  C
  C283     1.0000 0.51774  0.77647  0.35294  Biso   1.000  C
  C284     1.0000 0.53055  0.85719  0.30608  Biso   1.000  C
  C285     1.0000 0.53163  0.90031  0.28402  Biso   1.000  C
  C286     1.0000 0.53085  0.93724  0.26605  Biso   1.000  C
  C287     1.0000 0.52983  0.98102  0.24465  Biso   1.000  C
  C288     1.0000 0.53832  0.06424  0.19874  Biso   1.000  C
  C289     1.0000 0.54505  0.10796  0.17352  Biso   1.000  C
  C290     1.0000 0.35286  0.35299  0.77663  Biso   1.000  C
  C291     1.0000 0.30617  0.30621  0.85723  Biso   1.000  C
  C292     1.0000 0.28407  0.28401  0.90032  Biso   1.000  C
  C293     1.0000 0.26602  0.26586  0.93722  Biso   1.000  C
  C294     1.0000 0.24463  0.24453  0.98097  Biso   1.000  C
  C295     1.0000 0.19874  0.19872  0.06420  Biso   1.000  C
  C296     1.0000 0.17352  0.17350  0.10791  Biso   1.000  C
  C297     1.0000 0.77681  0.35307  0.35263  Biso   1.000  C
  C298     1.0000 0.85732  0.30600  0.30614  Biso   1.000  C
  C299     1.0000 0.90039  0.28383  0.28412  Biso   1.000  C
  C300     1.0000 0.93730  0.26582  0.26601  Biso   1.000  C
  C301     1.0000 0.98103  0.24452  0.24461  Biso   1.000  C
  C302     1.0000 0.06423  0.19872  0.19873  Biso   1.000  C
  C303     1.0000 0.10793  0.17350  0.17349  Biso   1.000  C
  C304     1.0000 0.35292  0.51780  0.77636  Biso   1.000  C
  C305     1.0000 0.30621  0.53057  0.85705  Biso   1.000  C
  C306     1.0000 0.28409  0.53166  0.90018  Biso   1.000  C
  C307     1.0000 0.26598  0.53087  0.93712  Biso   1.000  C
  C308     1.0000 0.24460  0.52983  0.98091  Biso   1.000  C
  C309     1.0000 0.19873  0.53833  0.06416  Biso   1.000  C
  C310     1.0000 0.17350  0.54505  0.10789  Biso   1.000  C
  C311     1.0000 0.51778  0.35288  0.35297  Biso   1.000  C
  C312     1.0000 0.53060  0.30619  0.30616  Biso   1.000  C
  C313     1.0000 0.53164  0.28412  0.28404  Biso   1.000  C
  C314     1.0000 0.53084  0.26601  0.26601  Biso   1.000  C
  C315     1.0000 0.52984  0.24460  0.24465  Biso   1.000  C
  C316     1.0000 0.53832  0.19877  0.19877  Biso   1.000  C
  C317     1.0000 0.54505  0.17355  0.17353  Biso   1.000  C
  C318     1.0000 0.35290  0.77659  0.51761  Biso   1.000  C
  C319     1.0000 0.30611  0.85718  0.53052  Biso   1.000  C
  C320     1.0000 0.28400  0.90028  0.53164  Biso   1.000  C
  C321     1.0000 0.26594  0.93720  0.53086  Biso   1.000  C
  C322     1.0000 0.24459  0.98096  0.52984  Biso   1.000  C
  C323     1.0000 0.19874  0.06418  0.53833  Biso   1.000  C
  C324     1.0000 0.17351  0.10789  0.54508  Biso   1.000  C
  C325     1.0000 0.64716  0.22355  0.48225  Biso   1.000  C
  C326     1.0000 0.69381  0.14282  0.46957  Biso   1.000  C
  C327     1.0000 0.71591  0.09973  0.46840  Biso   1.000  C
  C328     1.0000 0.73400  0.06283  0.46911  Biso   1.000  C
  C329     1.0000 0.75538  0.01906  0.47015  Biso   1.000  C
  C330     1.0000 0.80125  0.93583  0.46165  Biso   1.000  C
  C331     1.0000 0.82647  0.89210  0.45496  Biso   1.000  C
  C332     1.0000 0.22353  0.64704  0.64711  Biso   1.000  C
  C333     1.0000 0.14285  0.69377  0.69381  Biso   1.000  C
  C334     1.0000 0.09977  0.71592  0.71590  Biso   1.000  C
  C335     1.0000 0.06287  0.73400  0.73399  Biso   1.000  C
  C336     1.0000 0.01911  0.75536  0.75539  Biso   1.000  C
  C337     1.0000 0.93589  0.80124  0.80123  Biso   1.000  C
  C338     1.0000 0.89216  0.82646  0.82644  Biso   1.000  C
  C339     1.0000 0.64682  0.48226  0.22369  Biso   1.000  C
  C340     1.0000 0.69383  0.46954  0.14296  Biso   1.000  C
  C341     1.0000 0.71601  0.46842  0.09984  Biso   1.000  C
  C342     1.0000 0.73404  0.46915  0.06292  Biso   1.000  C
  C343     1.0000 0.75540  0.47013  0.01914  Biso   1.000  C
  C344     1.0000 0.80124  0.46167  0.93586  Biso   1.000  C
  C345     1.0000 0.82644  0.45496  0.89212  Biso   1.000  C
  C346     1.0000 0.48249  0.64702  0.64713  Biso   1.000  C
  C347     1.0000 0.46958  0.69384  0.69382  Biso   1.000  C
  C348     1.0000 0.46840  0.71595  0.71596  Biso   1.000  C
  C349     1.0000 0.46912  0.73403  0.73406  Biso   1.000  C
  C350     1.0000 0.47013  0.75541  0.75543  Biso   1.000  C
  C351     1.0000 0.46167  0.80125  0.80128  Biso   1.000  C
  C352     1.0000 0.45496  0.82647  0.82650  Biso   1.000  C
  C353     1.0000 0.48243  0.22342  0.64696  Biso   1.000  C
  C354     1.0000 0.46955  0.14281  0.69383  Biso   1.000  C
  C355     1.0000 0.46839  0.09971  0.71605  Biso   1.000  C
  C356     1.0000 0.46913  0.06279  0.73415  Biso   1.000  C
  C357     1.0000 0.47015  0.01904  0.75547  Biso   1.000  C
  C358     1.0000 0.46167  0.93579  0.80129  Biso   1.000  C
  C359     1.0000 0.45495  0.89207  0.82650  Biso   1.000  C
  C360     1.0000 0.64707  0.64712  0.48228  Biso   1.000  C
  C361     1.0000 0.69380  0.69381  0.46956  Biso   1.000  C
  C362     1.0000 0.71595  0.71593  0.46842  Biso   1.000  C
  C363     1.0000 0.73405  0.73402  0.46914  Biso   1.000  C
  C364     1.0000 0.75541  0.75540  0.47016  Biso   1.000  C
  C365     1.0000 0.80126  0.80128  0.46165  Biso   1.000  C
  C366     1.0000 0.82647  0.82649  0.45497  Biso   1.000  C
  C367     1.0000 0.22332  0.48263  0.64712  Biso   1.000  C
  C368     1.0000 0.14269  0.46977  0.69379  Biso   1.000  C
  C369     1.0000 0.09962  0.46852  0.71588  Biso   1.000  C
  C370     1.0000 0.06275  0.46916  0.73395  Biso   1.000  C
  C371     1.0000 0.01902  0.47010  0.75538  Biso   1.000  C
  C372     1.0000 0.93578  0.46165  0.80129  Biso   1.000  C
  C373     1.0000 0.89205  0.45497  0.82651  Biso   1.000  C
  C374     1.0000 0.64746  0.64689  0.22341  Biso   1.000  C
  C375     1.0000 0.69382  0.69395  0.14276  Biso   1.000  C
  C376     1.0000 0.71583  0.71613  0.09966  Biso   1.000  C
  C377     1.0000 0.73393  0.73418  0.06275  Biso   1.000  C
  C378     1.0000 0.75535  0.75550  0.01900  Biso   1.000  C
  C379     1.0000 0.80130  0.80126  0.93578  Biso   1.000  C
  C380     1.0000 0.82655  0.82646  0.89205  Biso   1.000  C
  C381     1.0000 0.64711  0.22342  0.64697  Biso   1.000  C
  C382     1.0000 0.69375  0.14274  0.69380  Biso   1.000  C
  C383     1.0000 0.71592  0.09966  0.71593  Biso   1.000  C
  C384     1.0000 0.73410  0.06277  0.73397  Biso   1.000  C
  C385     1.0000 0.75548  0.01902  0.75537  Biso   1.000  C
  C386     1.0000 0.80133  0.93579  0.80124  Biso   1.000  C
  C387     1.0000 0.82656  0.89206  0.82643  Biso   1.000  C
  C388     1.0000 0.48227  0.64703  0.22361  Biso   1.000  C
  C389     1.0000 0.46952  0.69374  0.14290  Biso   1.000  C
  C390     1.0000 0.46838  0.71591  0.09975  Biso   1.000  C
  C391     1.0000 0.46911  0.73407  0.06282  Biso   1.000  C
  C392     1.0000 0.47013  0.75543  0.01904  Biso   1.000  C
  C393     1.0000 0.46168  0.80125  0.93580  Biso   1.000  C
  C394     1.0000 0.45494  0.82648  0.89209  Biso   1.000  C
  C395     1.0000 0.64700  0.48242  0.64707  Biso   1.000  C
  C396     1.0000 0.69374  0.46966  0.69377  Biso   1.000  C
  C397     1.0000 0.71592  0.46847  0.71590  Biso   1.000  C
  C398     1.0000 0.73406  0.46914  0.73398  Biso   1.000  C
  C399     1.0000 0.75543  0.47013  0.75538  Biso   1.000  C
  C400     1.0000 0.80125  0.46166  0.80128  Biso   1.000  C
  C401     1.0000 0.82644  0.45497  0.82651  Biso   1.000  C
  C402     1.0000 0.22338  0.64712  0.48253  Biso   1.000  C
  C403     1.0000 0.14270  0.69375  0.46977  Biso   1.000  C
  C404     1.0000 0.09964  0.71587  0.46854  Biso   1.000  C
  C405     1.0000 0.06276  0.73400  0.46917  Biso   1.000  C
  C406     1.0000 0.01904  0.75542  0.47012  Biso   1.000  C
  C407     1.0000 0.93582  0.80129  0.46163  Biso   1.000  C
  C408     1.0000 0.89207  0.82649  0.45498  Biso   1.000  C
  C409     1.0000 0.12947  0.12946  0.54733  Biso   1.000  C
  C410     1.0000 0.12950  0.12946  0.19371  Biso   1.000  C
  C411     1.0000 0.54729  0.19377  0.12950  Biso   1.000  C
  C412     1.0000 0.19371  0.54730  0.12946  Biso   1.000  C
  C413     1.0000 0.12947  0.54726  0.19373  Biso   1.000  C
  C414     1.0000 0.12948  0.19370  0.54732  Biso   1.000  C
  C415     1.0000 0.54729  0.12952  0.12949  Biso   1.000  C
  C416     1.0000 0.19375  0.12947  0.12948  Biso   1.000  C
  C417     1.0000 0.12949  0.19373  0.12946  Biso   1.000  C
  C418     1.0000 0.12946  0.54728  0.12947  Biso   1.000  C
  C419     1.0000 0.54729  0.12952  0.19374  Biso   1.000  C
  C420     1.0000 0.19373  0.12945  0.54733  Biso   1.000  C
  C421     1.0000 0.87049  0.87052  0.45275  Biso   1.000  C
  C422     1.0000 0.87060  0.87050  0.80621  Biso   1.000  C
  C423     1.0000 0.80622  0.45274  0.87054  Biso   1.000  C
  C424     1.0000 0.45271  0.80625  0.87052  Biso   1.000  C
  C425     1.0000 0.45273  0.87050  0.80627  Biso   1.000  C
  C426     1.0000 0.80624  0.87052  0.45273  Biso   1.000  C
  C427     1.0000 0.87048  0.45274  0.87054  Biso   1.000  C
  C428     1.0000 0.87058  0.80624  0.87048  Biso   1.000  C
  C429     1.0000 0.80634  0.87049  0.87046  Biso   1.000  C
  C430     1.0000 0.45270  0.87051  0.87053  Biso   1.000  C
  C431     1.0000 0.87047  0.45273  0.80630  Biso   1.000  C
  C432     1.0000 0.87049  0.80627  0.45274  Biso   1.000  C
  O1       1.0000 0.73921  0.44118  0.51019  Biso   1.000  O
  O2       1.0000 0.79878  0.44049  0.51059  Biso   1.000  O
  O3       1.0000 0.44134  0.73919  0.30924  Biso   1.000  O
  O4       1.0000 0.44076  0.79868  0.25011  Biso   1.000  O
  O5       1.0000 0.51002  0.30949  0.73921  Biso   1.000  O
  O6       1.0000 0.51038  0.25022  0.79872  Biso   1.000  O
  O7       1.0000 0.30939  0.51014  0.44124  Biso   1.000  O
  O8       1.0000 0.25023  0.51033  0.44052  Biso   1.000  O
  O9       1.0000 0.73891  0.51009  0.30970  Biso   1.000  O
  O10      1.0000 0.79849  0.51033  0.25040  Biso   1.000  O
  O11      1.0000 0.44132  0.30922  0.51009  Biso   1.000  O
  O12      1.0000 0.44052  0.25003  0.51033  Biso   1.000  O
  O13      1.0000 0.51012  0.73940  0.44116  Biso   1.000  O
  O14      1.0000 0.51040  0.79894  0.44067  Biso   1.000  O
  O15      1.0000 0.30934  0.44134  0.73936  Biso   1.000  O
  O16      1.0000 0.24999  0.44067  0.79895  Biso   1.000  O
  O17      1.0000 0.73929  0.30941  0.44111  Biso   1.000  O
  O18      1.0000 0.79903  0.25020  0.44035  Biso   1.000  O
  O19      1.0000 0.44139  0.51007  0.73922  Biso   1.000  O
  O20      1.0000 0.44061  0.51027  0.79899  Biso   1.000  O
  O21      1.0000 0.50993  0.44147  0.30938  Biso   1.000  O
  O22      1.0000 0.51019  0.44066  0.25018  Biso   1.000  O
  O23      1.0000 0.30923  0.73929  0.51019  Biso   1.000  O
  O24      1.0000 0.25005  0.79905  0.51041  Biso   1.000  O
  O25      1.0000 0.55881  0.26063  0.48986  Biso   1.000  O
  O26      1.0000 0.55909  0.20109  0.48977  Biso   1.000  O
  O27      1.0000 0.26083  0.55873  0.69068  Biso   1.000  O
  O28      1.0000 0.20113  0.55910  0.74990  Biso   1.000  O
  O29      1.0000 0.69032  0.48987  0.26120  Biso   1.000  O
  O30      1.0000 0.74945  0.48970  0.20141  Biso   1.000  O
  O31      1.0000 0.48994  0.69066  0.55868  Biso   1.000  O
  O32      1.0000 0.48987  0.74984  0.55926  Biso   1.000  O
  O33      1.0000 0.48980  0.26079  0.69067  Biso   1.000  O
  O34      1.0000 0.48979  0.20116  0.74982  Biso   1.000  O
  O35      1.0000 0.69064  0.55866  0.49000  Biso   1.000  O
  O36      1.0000 0.74985  0.55901  0.49006  Biso   1.000  O
  O37      1.0000 0.26069  0.48994  0.55872  Biso   1.000  O
  O38      1.0000 0.20118  0.48980  0.55906  Biso   1.000  O
  O39      1.0000 0.55876  0.69044  0.26074  Biso   1.000  O
  O40      1.0000 0.55932  0.74956  0.20124  Biso   1.000  O
  O41      1.0000 0.69068  0.26062  0.55864  Biso   1.000  O
  O42      1.0000 0.75004  0.20105  0.55898  Biso   1.000  O
  O43      1.0000 0.48986  0.55861  0.26081  Biso   1.000  O
  O44      1.0000 0.48965  0.55936  0.20106  Biso   1.000  O
  O45      1.0000 0.55857  0.48990  0.69076  Biso   1.000  O
  O46      1.0000 0.55931  0.48967  0.74999  Biso   1.000  O
  O47      1.0000 0.26057  0.69068  0.49006  Biso   1.000  O
  O48      1.0000 0.20102  0.75003  0.48991  Biso   1.000  O
  O49      1.0000 0.26069  0.55872  0.48995  Biso   1.000  O
  O50      1.0000 0.20122  0.55908  0.48974  Biso   1.000  O
  O51      1.0000 0.55870  0.26069  0.69076  Biso   1.000  O
  O52      1.0000 0.55954  0.20092  0.74987  Biso   1.000  O
  O53      1.0000 0.49003  0.69063  0.26074  Biso   1.000  O
  O54      1.0000 0.48994  0.74999  0.20132  Biso   1.000  O
  O55      1.0000 0.69063  0.48996  0.55867  Biso   1.000  O
  O56      1.0000 0.74985  0.49007  0.55900  Biso   1.000  O
  O57      1.0000 0.26063  0.48998  0.69074  Biso   1.000  O
  O58      1.0000 0.20095  0.48961  0.75001  Biso   1.000  O
  O59      1.0000 0.55873  0.69080  0.48979  Biso   1.000  O
  O60      1.0000 0.55926  0.75008  0.48960  Biso   1.000  O
  O61      1.0000 0.49009  0.26059  0.55865  Biso   1.000  O
  O62      1.0000 0.48962  0.20098  0.55932  Biso   1.000  O
  O63      1.0000 0.69151  0.55861  0.26005  Biso   1.000  O
  O64      1.0000 0.75051  0.55934  0.20014  Biso   1.000  O
  O65      1.0000 0.26073  0.69061  0.55873  Biso   1.000  O
  O66      1.0000 0.20114  0.74991  0.55913  Biso   1.000  O
  O67      1.0000 0.55853  0.48997  0.26044  Biso   1.000  O
  O68      1.0000 0.55932  0.48975  0.20067  Biso   1.000  O
  O69      1.0000 0.48986  0.55866  0.69101  Biso   1.000  O
  O70      1.0000 0.48965  0.55938  0.75024  Biso   1.000  O
  O71      1.0000 0.69062  0.26081  0.48985  Biso   1.000  O
  O72      1.0000 0.74992  0.20118  0.48986  Biso   1.000  O
  O73      1.0000 0.44127  0.73932  0.51005  Biso   1.000  O
  O74      1.0000 0.44067  0.79903  0.51018  Biso   1.000  O
  O75      1.0000 0.74000  0.44126  0.30874  Biso   1.000  O
  O76      1.0000 0.79953  0.44062  0.24936  Biso   1.000  O
  O77      1.0000 0.30935  0.51019  0.73926  Biso   1.000  O
  O78      1.0000 0.25007  0.51012  0.79888  Biso   1.000  O
  O79      1.0000 0.51029  0.30930  0.44127  Biso   1.000  O
  O80      1.0000 0.51015  0.25010  0.44080  Biso   1.000  O
  O81      1.0000 0.51023  0.73920  0.30936  Biso   1.000  O
  O82      1.0000 0.51045  0.79898  0.25030  Biso   1.000  O
  O83      1.0000 0.30939  0.44126  0.51011  Biso   1.000  O
  O84      1.0000 0.25024  0.44059  0.51023  Biso   1.000  O
  O85      1.0000 0.73915  0.51015  0.44133  Biso   1.000  O
  O86      1.0000 0.79875  0.51057  0.44060  Biso   1.000  O
  O87      1.0000 0.44130  0.30937  0.73934  Biso   1.000  O
  O88      1.0000 0.44105  0.24999  0.79881  Biso   1.000  O
  O89      1.0000 0.30916  0.73929  0.44136  Biso   1.000  O
  O90      1.0000 0.24998  0.79905  0.44055  Biso   1.000  O
  O91      1.0000 0.51004  0.44138  0.73962  Biso   1.000  O
  O92      1.0000 0.51024  0.44059  0.79940  Biso   1.000  O
  O93      1.0000 0.44125  0.51020  0.30892  Biso   1.000  O
  O94      1.0000 0.44052  0.51034  0.24973  Biso   1.000  O
  O95      1.0000 0.73928  0.30932  0.51013  Biso   1.000  O
  O96      1.0000 0.79899  0.25008  0.51046  Biso   1.000  O
  Cu25     1.0000 0.36834  0.17467  0.59170  Biso   1.000  Cu
  Cu26     1.0000 0.15288  0.39013  0.37624  Biso   1.000  Cu
  Cu27     1.0000 0.58380  0.39013  0.37624  Biso   1.000  Cu
  Cu28     1.0000 0.36834  0.60559  0.16078  Biso   1.000  Cu
  Cu29     1.0000 0.36834  0.60559  0.37624  Biso   1.000  Cu
  Cu30     1.0000 0.15288  0.39013  0.59170  Biso   1.000  Cu
  Cu31     1.0000 0.58380  0.39013  0.16078  Biso   1.000  Cu
  Cu32     1.0000 0.36834  0.17467  0.37624  Biso   1.000  Cu
  Cu33     1.0000 0.36834  0.39013  0.16078  Biso   1.000  Cu
  Cu34     1.0000 0.15288  0.60559  0.37624  Biso   1.000  Cu
  Cu35     1.0000 0.58380  0.17467  0.37624  Biso   1.000  Cu
  Cu36     1.0000 0.36834  0.39013  0.59170  Biso   1.000  Cu
  H193     1.0000 0.35241  0.63468  0.51239  Biso   1.000  H
  H194     1.0000 0.61288  0.37421  0.51239  Biso   1.000  H
  H195     1.0000 0.50448  0.52628  0.36031  Biso   1.000  H
  H196     1.0000 0.50448  0.52628  0.62078  Biso   1.000  H
  H197     1.0000 0.35241  0.52628  0.51239  Biso   1.000  H
  H198     1.0000 0.61288  0.52628  0.51239  Biso   1.000  H
  H199     1.0000 0.50448  0.37421  0.62078  Biso   1.000  H
  H200     1.0000 0.50448  0.63468  0.36031  Biso   1.000  H
  H201     1.0000 0.35241  0.52628  0.62078  Biso   1.000  H
  H202     1.0000 0.61288  0.52628  0.36031  Biso   1.000  H
  H203     1.0000 0.50448  0.63468  0.51239  Biso   1.000  H
  H204     1.0000 0.50448  0.37421  0.51239  Biso   1.000  H
  H205     1.0000 0.12379  0.40606  0.24010  Biso   1.000  H
  H206     1.0000 0.38426  0.14559  0.24010  Biso   1.000  H
  H207     1.0000 0.23219  0.25399  0.39217  Biso   1.000  H
  H208     1.0000 0.23219  0.25399  0.13170  Biso   1.000  H
  H209     1.0000 0.23219  0.40606  0.24010  Biso   1.000  H
  H210     1.0000 0.23219  0.14559  0.24010  Biso   1.000  H
  H211     1.0000 0.38426  0.25399  0.13170  Biso   1.000  H
  H212     1.0000 0.12379  0.25399  0.39217  Biso   1.000  H
  H213     1.0000 0.23219  0.40606  0.13170  Biso   1.000  H
  H214     1.0000 0.23219  0.14559  0.39217  Biso   1.000  H
  H215     1.0000 0.12379  0.25399  0.24010  Biso   1.000  H
  H216     1.0000 0.38426  0.25399  0.24010  Biso   1.000  H
  C433     1.0000 0.35198  0.60595  0.52696  Biso   1.000  C
  C434     1.0000 0.58416  0.37377  0.52696  Biso   1.000  C
  C435     1.0000 0.51906  0.54086  0.35988  Biso   1.000  C
  C436     1.0000 0.51906  0.54086  0.59206  Biso   1.000  C
  C437     1.0000 0.35198  0.54086  0.52696  Biso   1.000  C
  C438     1.0000 0.58416  0.54086  0.52696  Biso   1.000  C
  C439     1.0000 0.51906  0.37377  0.59206  Biso   1.000  C
  C440     1.0000 0.51906  0.60595  0.35988  Biso   1.000  C
  C441     1.0000 0.35198  0.54086  0.59206  Biso   1.000  C
  C442     1.0000 0.58416  0.54086  0.35988  Biso   1.000  C
  C443     1.0000 0.51906  0.60595  0.52696  Biso   1.000  C
  C444     1.0000 0.51906  0.37377  0.52696  Biso   1.000  C
  C445     1.0000 0.15252  0.40649  0.22552  Biso   1.000  C
  C446     1.0000 0.38470  0.17431  0.22552  Biso   1.000  C
  C447     1.0000 0.21761  0.23941  0.39260  Biso   1.000  C
  C448     1.0000 0.21761  0.23941  0.16042  Biso   1.000  C
  C449     1.0000 0.21761  0.40649  0.22552  Biso   1.000  C
  C450     1.0000 0.21761  0.17431  0.22552  Biso   1.000  C
  C451     1.0000 0.38470  0.23941  0.16042  Biso   1.000  C
  C452     1.0000 0.15252  0.23941  0.39260  Biso   1.000  C
  C453     1.0000 0.21761  0.40649  0.16042  Biso   1.000  C
  C454     1.0000 0.21761  0.17431  0.39260  Biso   1.000  C
  C455     1.0000 0.15252  0.23941  0.22552  Biso   1.000  C
  C456     1.0000 0.38470  0.23941  0.22552  Biso   1.000  C
  C457     1.0000 0.35169  0.58419  0.57029  Biso   1.000  C
  C458     1.0000 0.35545  0.60612  0.59223  Biso   1.000  C
  C459     1.0000 0.56239  0.37348  0.50570  Biso   1.000  C
  C460     1.0000 0.58433  0.37725  0.45805  Biso   1.000  C
  C461     1.0000 0.56239  0.51959  0.35959  Biso   1.000  C
  C462     1.0000 0.58433  0.47194  0.36336  Biso   1.000  C
  C463     1.0000 0.49779  0.58419  0.57029  Biso   1.000  C
  C464     1.0000 0.45014  0.60612  0.59223  Biso   1.000  C
  C465     1.0000 0.35169  0.58419  0.50570  Biso   1.000  C
  C466     1.0000 0.35545  0.60612  0.45805  Biso   1.000  C
  C467     1.0000 0.56239  0.51959  0.57029  Biso   1.000  C
  C468     1.0000 0.58433  0.47194  0.59223  Biso   1.000  C
  C469     1.0000 0.56239  0.37348  0.57029  Biso   1.000  C
  C470     1.0000 0.58433  0.37725  0.59223  Biso   1.000  C
  C471     1.0000 0.49779  0.58419  0.35959  Biso   1.000  C
  C472     1.0000 0.45014  0.60613  0.36336  Biso   1.000  C
  C473     1.0000 0.35169  0.51959  0.57029  Biso   1.000  C
  C474     1.0000 0.35545  0.47194  0.59223  Biso   1.000  C
  C475     1.0000 0.56239  0.58419  0.35959  Biso   1.000  C
  C476     1.0000 0.58433  0.60613  0.36336  Biso   1.000  C
  C477     1.0000 0.56239  0.58419  0.50570  Biso   1.000  C
  C478     1.0000 0.58433  0.60612  0.45805  Biso   1.000  C
  C479     1.0000 0.49779  0.37348  0.57029  Biso   1.000  C
  C480     1.0000 0.45014  0.37725  0.59223  Biso   1.000  C
  C481     1.0000 0.17428  0.40678  0.18219  Biso   1.000  C
  C482     1.0000 0.15235  0.40302  0.16025  Biso   1.000  C
  C483     1.0000 0.38499  0.19608  0.24679  Biso   1.000  C
  C484     1.0000 0.38122  0.17414  0.29443  Biso   1.000  C
  C485     1.0000 0.23888  0.19608  0.39289  Biso   1.000  C
  C486     1.0000 0.28653  0.17414  0.38913  Biso   1.000  C
  C487     1.0000 0.17428  0.26068  0.18219  Biso   1.000  C
  C488     1.0000 0.15235  0.30833  0.16025  Biso   1.000  C
  C489     1.0000 0.17428  0.40678  0.24679  Biso   1.000  C
  C490     1.0000 0.15235  0.40302  0.29443  Biso   1.000  C
  C491     1.0000 0.23888  0.19608  0.18219  Biso   1.000  C
  C492     1.0000 0.28653  0.17414  0.16025  Biso   1.000  C
  C493     1.0000 0.38499  0.19608  0.18219  Biso   1.000  C
  C494     1.0000 0.38122  0.17414  0.16025  Biso   1.000  C
  C495     1.0000 0.17428  0.26068  0.39289  Biso   1.000  C
  C496     1.0000 0.15235  0.30833  0.38913  Biso   1.000  C
  C497     1.0000 0.23888  0.40678  0.18219  Biso   1.000  C
  C498     1.0000 0.28653  0.40302  0.16025  Biso   1.000  C
  C499     1.0000 0.17428  0.19608  0.39289  Biso   1.000  C
  C500     1.0000 0.15235  0.17414  0.38913  Biso   1.000  C
  C501     1.0000 0.17428  0.19608  0.24679  Biso   1.000  C
  C502     1.0000 0.15235  0.17414  0.29443  Biso   1.000  C
  C503     1.0000 0.38499  0.26068  0.18219  Biso   1.000  C
  C504     1.0000 0.38122  0.30833  0.16025  Biso   1.000  C
  O97      1.0000 0.35772  0.14347  0.57038  Biso   1.000  O
  O98      1.0000 0.12167  0.37951  0.43939  Biso   1.000  O
  O99      1.0000 0.56248  0.45328  0.36562  Biso   1.000  O
  O100     1.0000 0.43148  0.58428  0.12958  Biso   1.000  O
  O101     1.0000 0.35772  0.58428  0.43939  Biso   1.000  O
  O102     1.0000 0.12167  0.45328  0.57038  Biso   1.000  O
  O103     1.0000 0.56248  0.37951  0.12958  Biso   1.000  O
  O104     1.0000 0.43148  0.14347  0.36562  Biso   1.000  O
  O105     1.0000 0.35772  0.45328  0.12958  Biso   1.000  O
  O106     1.0000 0.12167  0.58428  0.36562  Biso   1.000  O
  O107     1.0000 0.56248  0.14347  0.43939  Biso   1.000  O
  O108     1.0000 0.43148  0.37951  0.57038  Biso   1.000  O
  O109     1.0000 0.61500  0.40075  0.18210  Biso   1.000  O
  O110     1.0000 0.37896  0.63680  0.31310  Biso   1.000  O
  O111     1.0000 0.30519  0.19599  0.38686  Biso   1.000  O
  O112     1.0000 0.17419  0.32699  0.62291  Biso   1.000  O
  O113     1.0000 0.17419  0.40075  0.31310  Biso   1.000  O
  O114     1.0000 0.30519  0.63680  0.18210  Biso   1.000  O
  O115     1.0000 0.37896  0.19599  0.62291  Biso   1.000  O
  O116     1.0000 0.61500  0.32699  0.38686  Biso   1.000  O
  O117     1.0000 0.30519  0.40075  0.62291  Biso   1.000  O
  O118     1.0000 0.17419  0.63680  0.38686  Biso   1.000  O
  O119     1.0000 0.61500  0.19599  0.31310  Biso   1.000  O
  O120     1.0000 0.37896  0.32699  0.18210  Biso   1.000  O
  O121     1.0000 0.37896  0.63680  0.18210  Biso   1.000  O
  O122     1.0000 0.61500  0.40075  0.31310  Biso   1.000  O
  O123     1.0000 0.17419  0.32699  0.38686  Biso   1.000  O
  O124     1.0000 0.30519  0.19599  0.62291  Biso   1.000  O
  O125     1.0000 0.37896  0.19599  0.31310  Biso   1.000  O
  O126     1.0000 0.61500  0.32699  0.18210  Biso   1.000  O
  O127     1.0000 0.17419  0.40075  0.62291  Biso   1.000  O
  O128     1.0000 0.30519  0.63680  0.38686  Biso   1.000  O
  O129     1.0000 0.37896  0.32699  0.62291  Biso   1.000  O
  O130     1.0000 0.61500  0.19599  0.38686  Biso   1.000  O
  O131     1.0000 0.17419  0.63680  0.31310  Biso   1.000  O
  O132     1.0000 0.30519  0.40075  0.18210  Biso   1.000  O
  O133     1.0000 0.12167  0.37951  0.57038  Biso   1.000  O
  O134     1.0000 0.35772  0.14347  0.43939  Biso   1.000  O
  O135     1.0000 0.43148  0.58428  0.36562  Biso   1.000  O
  O136     1.0000 0.56248  0.45328  0.12958  Biso   1.000  O
  O137     1.0000 0.56248  0.37951  0.43939  Biso   1.000  O
  O138     1.0000 0.43148  0.14347  0.57038  Biso   1.000  O
  O139     1.0000 0.35772  0.58428  0.12958  Biso   1.000  O
  O140     1.0000 0.12167  0.45328  0.36562  Biso   1.000  O
  O141     1.0000 0.43148  0.37951  0.12958  Biso   1.000  O
  O142     1.0000 0.56248  0.14347  0.36562  Biso   1.000  O
  O143     1.0000 0.12167  0.58428  0.43939  Biso   1.000  O
  O144     1.0000 0.35772  0.45328  0.57038  Biso   1.000  O
  Cu37     1.0000 0.36834  0.17467  0.09261  Biso   1.000  Cu
  Cu38     1.0000 0.15288  0.39013  0.87715  Biso   1.000  Cu
  Cu39     1.0000 0.58380  0.39013  0.87715  Biso   1.000  Cu
  Cu40     1.0000 0.36834  0.60559  0.66169  Biso   1.000  Cu
  Cu41     1.0000 0.36834  0.60559  0.87715  Biso   1.000  Cu
  Cu42     1.0000 0.15288  0.39013  0.09261  Biso   1.000  Cu
  Cu43     1.0000 0.58380  0.39013  0.66169  Biso   1.000  Cu
  Cu44     1.0000 0.36834  0.17467  0.87715  Biso   1.000  Cu
  Cu45     1.0000 0.36834  0.39013  0.66169  Biso   1.000  Cu
  Cu46     1.0000 0.15288  0.60559  0.87715  Biso   1.000  Cu
  Cu47     1.0000 0.58380  0.17467  0.87715  Biso   1.000  Cu
  Cu48     1.0000 0.36834  0.39013  0.09261  Biso   1.000  Cu
  H217     1.0000 0.35241  0.63468  0.01330  Biso   1.000  H
  H218     1.0000 0.61288  0.37421  0.01330  Biso   1.000  H
  H219     1.0000 0.50448  0.52628  0.86122  Biso   1.000  H
  H220     1.0000 0.50448  0.52628  0.12169  Biso   1.000  H
  H221     1.0000 0.35241  0.52628  0.01330  Biso   1.000  H
  H222     1.0000 0.61288  0.52628  0.01330  Biso   1.000  H
  H223     1.0000 0.50448  0.37421  0.12169  Biso   1.000  H
  H224     1.0000 0.50448  0.63468  0.86122  Biso   1.000  H
  H225     1.0000 0.35241  0.52628  0.12169  Biso   1.000  H
  H226     1.0000 0.61288  0.52628  0.86122  Biso   1.000  H
  H227     1.0000 0.50448  0.63468  0.01330  Biso   1.000  H
  H228     1.0000 0.50448  0.37421  0.01330  Biso   1.000  H
  H229     1.0000 0.12379  0.40606  0.74100  Biso   1.000  H
  H230     1.0000 0.38426  0.14559  0.74100  Biso   1.000  H
  H231     1.0000 0.23219  0.25399  0.89308  Biso   1.000  H
  H232     1.0000 0.23219  0.25399  0.63261  Biso   1.000  H
  H233     1.0000 0.23219  0.40606  0.74100  Biso   1.000  H
  H234     1.0000 0.23219  0.14559  0.74100  Biso   1.000  H
  H235     1.0000 0.38426  0.25399  0.63261  Biso   1.000  H
  H236     1.0000 0.12379  0.25399  0.89308  Biso   1.000  H
  H237     1.0000 0.23219  0.40606  0.63261  Biso   1.000  H
  H238     1.0000 0.23219  0.14559  0.89308  Biso   1.000  H
  H239     1.0000 0.12379  0.25399  0.74100  Biso   1.000  H
  H240     1.0000 0.38426  0.25399  0.74100  Biso   1.000  H
  C505     1.0000 0.35198  0.60595  0.02787  Biso   1.000  C
  C506     1.0000 0.58416  0.37377  0.02787  Biso   1.000  C
  C507     1.0000 0.51906  0.54086  0.86079  Biso   1.000  C
  C508     1.0000 0.51906  0.54086  0.09297  Biso   1.000  C
  C509     1.0000 0.35198  0.54086  0.02787  Biso   1.000  C
  C510     1.0000 0.58416  0.54086  0.02787  Biso   1.000  C
  C511     1.0000 0.51906  0.37377  0.09297  Biso   1.000  C
  C512     1.0000 0.51906  0.60595  0.86079  Biso   1.000  C
  C513     1.0000 0.35198  0.54086  0.09297  Biso   1.000  C
  C514     1.0000 0.58416  0.54086  0.86079  Biso   1.000  C
  C515     1.0000 0.51906  0.60595  0.02787  Biso   1.000  C
  C516     1.0000 0.51906  0.37377  0.02787  Biso   1.000  C
  C517     1.0000 0.15252  0.40649  0.72643  Biso   1.000  C
  C518     1.0000 0.38470  0.17431  0.72643  Biso   1.000  C
  C519     1.0000 0.21761  0.23941  0.89351  Biso   1.000  C
  C520     1.0000 0.21761  0.23941  0.66133  Biso   1.000  C
  C521     1.0000 0.21761  0.40649  0.72643  Biso   1.000  C
  C522     1.0000 0.21761  0.17431  0.72643  Biso   1.000  C
  C523     1.0000 0.38470  0.23941  0.66133  Biso   1.000  C
  C524     1.0000 0.15252  0.23941  0.89351  Biso   1.000  C
  C525     1.0000 0.21761  0.40649  0.66133  Biso   1.000  C
  C526     1.0000 0.21761  0.17431  0.89351  Biso   1.000  C
  C527     1.0000 0.15252  0.23941  0.72643  Biso   1.000  C
  C528     1.0000 0.38470  0.23941  0.72643  Biso   1.000  C
  C529     1.0000 0.35169  0.58419  0.07120  Biso   1.000  C
  C530     1.0000 0.35545  0.60613  0.09314  Biso   1.000  C
  C531     1.0000 0.56239  0.37348  0.00660  Biso   1.000  C
  C532     1.0000 0.58433  0.37725  0.95896  Biso   1.000  C
  C533     1.0000 0.56239  0.51959  0.86050  Biso   1.000  C
  C534     1.0000 0.58433  0.47194  0.86427  Biso   1.000  C
  C535     1.0000 0.49779  0.58419  0.07120  Biso   1.000  C
  C536     1.0000 0.45014  0.60613  0.09314  Biso   1.000  C
  C537     1.0000 0.35169  0.58419  0.00660  Biso   1.000  C
  C538     1.0000 0.35545  0.60612  0.95896  Biso   1.000  C
  C539     1.0000 0.56239  0.51959  0.07120  Biso   1.000  C
  C540     1.0000 0.58433  0.47194  0.09314  Biso   1.000  C
  C541     1.0000 0.56239  0.37348  0.07120  Biso   1.000  C
  C542     1.0000 0.58433  0.37725  0.09314  Biso   1.000  C
  C543     1.0000 0.49779  0.58419  0.86050  Biso   1.000  C
  C544     1.0000 0.45014  0.60612  0.86427  Biso   1.000  C
  C545     1.0000 0.35169  0.51959  0.07120  Biso   1.000  C
  C546     1.0000 0.35545  0.47194  0.09314  Biso   1.000  C
  C547     1.0000 0.56239  0.58419  0.86050  Biso   1.000  C
  C548     1.0000 0.58433  0.60612  0.86427  Biso   1.000  C
  C549     1.0000 0.56239  0.58419  0.00660  Biso   1.000  C
  C550     1.0000 0.58433  0.60612  0.95896  Biso   1.000  C
  C551     1.0000 0.49779  0.37348  0.07120  Biso   1.000  C
  C552     1.0000 0.45014  0.37725  0.09314  Biso   1.000  C
  C553     1.0000 0.17428  0.40678  0.68310  Biso   1.000  C
  C554     1.0000 0.15235  0.40302  0.66116  Biso   1.000  C
  C555     1.0000 0.38499  0.19608  0.74769  Biso   1.000  C
  C556     1.0000 0.38122  0.17414  0.79534  Biso   1.000  C
  C557     1.0000 0.23888  0.19608  0.89380  Biso   1.000  C
  C558     1.0000 0.28653  0.17414  0.89003  Biso   1.000  C
  C559     1.0000 0.17428  0.26068  0.68310  Biso   1.000  C
  C560     1.0000 0.15235  0.30833  0.66116  Biso   1.000  C
  C561     1.0000 0.17428  0.40678  0.74769  Biso   1.000  C
  C562     1.0000 0.15235  0.40302  0.79534  Biso   1.000  C
  C563     1.0000 0.23888  0.19608  0.68310  Biso   1.000  C
  C564     1.0000 0.28653  0.17414  0.66116  Biso   1.000  C
  C565     1.0000 0.38499  0.19608  0.68310  Biso   1.000  C
  C566     1.0000 0.38122  0.17414  0.66116  Biso   1.000  C
  C567     1.0000 0.17428  0.26068  0.89380  Biso   1.000  C
  C568     1.0000 0.15235  0.30833  0.89003  Biso   1.000  C
  C569     1.0000 0.23888  0.40678  0.68310  Biso   1.000  C
  C570     1.0000 0.28653  0.40302  0.66116  Biso   1.000  C
  C571     1.0000 0.17428  0.19608  0.89380  Biso   1.000  C
  C572     1.0000 0.15235  0.17414  0.89003  Biso   1.000  C
  C573     1.0000 0.17428  0.19608  0.74769  Biso   1.000  C
  C574     1.0000 0.15235  0.17414  0.79534  Biso   1.000  C
  C575     1.0000 0.38499  0.26068  0.68310  Biso   1.000  C
  C576     1.0000 0.38122  0.30833  0.66116  Biso   1.000  C
  O145     1.0000 0.35772  0.14347  0.07129  Biso   1.000  O
  O146     1.0000 0.12167  0.37951  0.94029  Biso   1.000  O
  O147     1.0000 0.56248  0.45328  0.86653  Biso   1.000  O
  O148     1.0000 0.43148  0.58428  0.63048  Biso   1.000  O
  O149     1.0000 0.35772  0.58428  0.94029  Biso   1.000  O
  O150     1.0000 0.12167  0.45328  0.07129  Biso   1.000  O
  O151     1.0000 0.56248  0.37951  0.63048  Biso   1.000  O
  O152     1.0000 0.43148  0.14347  0.86653  Biso   1.000  O
  O153     1.0000 0.35772  0.45328  0.63048  Biso   1.000  O
  O154     1.0000 0.12167  0.58428  0.86653  Biso   1.000  O
  O155     1.0000 0.56248  0.14347  0.94029  Biso   1.000  O
  O156     1.0000 0.43148  0.37951  0.07129  Biso   1.000  O
  O157     1.0000 0.61500  0.40075  0.68301  Biso   1.000  O
  O158     1.0000 0.37896  0.63680  0.81400  Biso   1.000  O
  O159     1.0000 0.30519  0.19599  0.88777  Biso   1.000  O
  O160     1.0000 0.17419  0.32699  0.12382  Biso   1.000  O
  O161     1.0000 0.17419  0.40075  0.81400  Biso   1.000  O
  O162     1.0000 0.30519  0.63680  0.68301  Biso   1.000  O
  O163     1.0000 0.37896  0.19599  0.12382  Biso   1.000  O
  O164     1.0000 0.61500  0.32699  0.88777  Biso   1.000  O
  O165     1.0000 0.30519  0.40075  0.12382  Biso   1.000  O
  O166     1.0000 0.17419  0.63680  0.88777  Biso   1.000  O
  O167     1.0000 0.61500  0.19599  0.81400  Biso   1.000  O
  O168     1.0000 0.37896  0.32699  0.68301  Biso   1.000  O
  O169     1.0000 0.37896  0.63680  0.68301  Biso   1.000  O
  O170     1.0000 0.61500  0.40075  0.81400  Biso   1.000  O
  O171     1.0000 0.17419  0.32699  0.88777  Biso   1.000  O
  O172     1.0000 0.30519  0.19599  0.12382  Biso   1.000  O
  O173     1.0000 0.37896  0.19599  0.81400  Biso   1.000  O
  O174     1.0000 0.61500  0.32699  0.68301  Biso   1.000  O
  O175     1.0000 0.17419  0.40075  0.12382  Biso   1.000  O
  O176     1.0000 0.30519  0.63680  0.88777  Biso   1.000  O
  O177     1.0000 0.37896  0.32699  0.12382  Biso   1.000  O
  O178     1.0000 0.61500  0.19599  0.88777  Biso   1.000  O
  O179     1.0000 0.17419  0.63680  0.81400  Biso   1.000  O
  O180     1.0000 0.30519  0.40075  0.68301  Biso   1.000  O
  O181     1.0000 0.12167  0.37951  0.07129  Biso   1.000  O
  O182     1.0000 0.35772  0.14347  0.94029  Biso   1.000  O
  O183     1.0000 0.43148  0.58428  0.86653  Biso   1.000  O
  O184     1.0000 0.56248  0.45328  0.63048  Biso   1.000  O
  O185     1.0000 0.56248  0.37951  0.94029  Biso   1.000  O
  O186     1.0000 0.43148  0.14347  0.07129  Biso   1.000  O
  O187     1.0000 0.35772  0.58428  0.63048  Biso   1.000  O
  O188     1.0000 0.12167  0.45328  0.86653  Biso   1.000  O
  O189     1.0000 0.43148  0.37951  0.63048  Biso   1.000  O
  O190     1.0000 0.56248  0.14347  0.86653  Biso   1.000  O
  O191     1.0000 0.12167  0.58428  0.94029  Biso   1.000  O
  O192     1.0000 0.35772  0.45328  0.07129  Biso   1.000  O
  Cu49     1.0000 0.36834  0.67558  0.59170  Biso   1.000  Cu
  Cu50     1.0000 0.15288  0.89104  0.37624  Biso   1.000  Cu
  Cu51     1.0000 0.58380  0.89104  0.37624  Biso   1.000  Cu
  Cu52     1.0000 0.36834  0.10650  0.16078  Biso   1.000  Cu
  Cu53     1.0000 0.36834  0.10650  0.37624  Biso   1.000  Cu
  Cu54     1.0000 0.15288  0.89104  0.59170  Biso   1.000  Cu
  Cu55     1.0000 0.58380  0.89104  0.16078  Biso   1.000  Cu
  Cu56     1.0000 0.36834  0.67558  0.37624  Biso   1.000  Cu
  Cu57     1.0000 0.36834  0.89104  0.16078  Biso   1.000  Cu
  Cu58     1.0000 0.15288  0.10650  0.37624  Biso   1.000  Cu
  Cu59     1.0000 0.58380  0.67558  0.37624  Biso   1.000  Cu
  Cu60     1.0000 0.36834  0.89104  0.59170  Biso   1.000  Cu
  H241     1.0000 0.35241  0.13558  0.51239  Biso   1.000  H
  H242     1.0000 0.61288  0.87511  0.51239  Biso   1.000  H
  H243     1.0000 0.50448  0.02719  0.36031  Biso   1.000  H
  H244     1.0000 0.50448  0.02719  0.62078  Biso   1.000  H
  H245     1.0000 0.35241  0.02719  0.51239  Biso   1.000  H
  H246     1.0000 0.61288  0.02719  0.51239  Biso   1.000  H
  H247     1.0000 0.50448  0.87511  0.62078  Biso   1.000  H
  H248     1.0000 0.50448  0.13558  0.36031  Biso   1.000  H
  H249     1.0000 0.35241  0.02719  0.62078  Biso   1.000  H
  H250     1.0000 0.61288  0.02719  0.36031  Biso   1.000  H
  H251     1.0000 0.50448  0.13558  0.51239  Biso   1.000  H
  H252     1.0000 0.50448  0.87511  0.51239  Biso   1.000  H
  H253     1.0000 0.12379  0.90697  0.24010  Biso   1.000  H
  H254     1.0000 0.38426  0.64650  0.24010  Biso   1.000  H
  H255     1.0000 0.23219  0.75489  0.39217  Biso   1.000  H
  H256     1.0000 0.23219  0.75489  0.13170  Biso   1.000  H
  H257     1.0000 0.23219  0.90697  0.24010  Biso   1.000  H
  H258     1.0000 0.23219  0.64650  0.24010  Biso   1.000  H
  H259     1.0000 0.38426  0.75489  0.13170  Biso   1.000  H
  H260     1.0000 0.12379  0.75489  0.39217  Biso   1.000  H
  H261     1.0000 0.23219  0.90697  0.13170  Biso   1.000  H
  H262     1.0000 0.23219  0.64650  0.39217  Biso   1.000  H
  H263     1.0000 0.12379  0.75489  0.24010  Biso   1.000  H
  H264     1.0000 0.38426  0.75489  0.24010  Biso   1.000  H
  C577     1.0000 0.35198  0.10686  0.52696  Biso   1.000  C
  C578     1.0000 0.58416  0.87468  0.52696  Biso   1.000  C
  C579     1.0000 0.51906  0.04176  0.35988  Biso   1.000  C
  C580     1.0000 0.51906  0.04176  0.59206  Biso   1.000  C
  C581     1.0000 0.35198  0.04176  0.52696  Biso   1.000  C
  C582     1.0000 0.58416  0.04176  0.52696  Biso   1.000  C
  C583     1.0000 0.51906  0.87468  0.59206  Biso   1.000  C
  C584     1.0000 0.51906  0.10686  0.35988  Biso   1.000  C
  C585     1.0000 0.35198  0.04176  0.59206  Biso   1.000  C
  C586     1.0000 0.58416  0.04176  0.35988  Biso   1.000  C
  C587     1.0000 0.51906  0.10686  0.52696  Biso   1.000  C
  C588     1.0000 0.51906  0.87468  0.52696  Biso   1.000  C
  C589     1.0000 0.15252  0.90740  0.22552  Biso   1.000  C
  C590     1.0000 0.38470  0.67522  0.22552  Biso   1.000  C
  C591     1.0000 0.21761  0.74032  0.39260  Biso   1.000  C
  C592     1.0000 0.21761  0.74032  0.16042  Biso   1.000  C
  C593     1.0000 0.21761  0.90740  0.22552  Biso   1.000  C
  C594     1.0000 0.21761  0.67522  0.22552  Biso   1.000  C
  C595     1.0000 0.38470  0.74032  0.16042  Biso   1.000  C
  C596     1.0000 0.15252  0.74032  0.39260  Biso   1.000  C
  C597     1.0000 0.21761  0.90740  0.16042  Biso   1.000  C
  C598     1.0000 0.21761  0.67522  0.39260  Biso   1.000  C
  C599     1.0000 0.15252  0.74032  0.22552  Biso   1.000  C
  C600     1.0000 0.38470  0.74032  0.22552  Biso   1.000  C
  C601     1.0000 0.35169  0.08509  0.57029  Biso   1.000  C
  C602     1.0000 0.35545  0.10703  0.59223  Biso   1.000  C
  C603     1.0000 0.56239  0.87439  0.50570  Biso   1.000  C
  C604     1.0000 0.58433  0.87816  0.45805  Biso   1.000  C
  C605     1.0000 0.56239  0.02050  0.35959  Biso   1.000  C
  C606     1.0000 0.58433  0.97285  0.36336  Biso   1.000  C
  C607     1.0000 0.49779  0.08509  0.57029  Biso   1.000  C
  C608     1.0000 0.45014  0.10703  0.59223  Biso   1.000  C
  C609     1.0000 0.35169  0.08509  0.50570  Biso   1.000  C
  C610     1.0000 0.35545  0.10703  0.45805  Biso   1.000  C
  C611     1.0000 0.56239  0.02050  0.57029  Biso   1.000  C
  C612     1.0000 0.58433  0.97285  0.59223  Biso   1.000  C
  C613     1.0000 0.56239  0.87439  0.57029  Biso   1.000  C
  C614     1.0000 0.58433  0.87816  0.59223  Biso   1.000  C
  C615     1.0000 0.49779  0.08509  0.35959  Biso   1.000  C
  C616     1.0000 0.45014  0.10703  0.36336  Biso   1.000  C
  C617     1.0000 0.35169  0.02050  0.57029  Biso   1.000  C
  C618     1.0000 0.35545  0.97285  0.59223  Biso   1.000  C
  C619     1.0000 0.56239  0.08509  0.35959  Biso   1.000  C
  C620     1.0000 0.58433  0.10703  0.36336  Biso   1.000  C
  C621     1.0000 0.56239  0.08509  0.50570  Biso   1.000  C
  C622     1.0000 0.58433  0.10703  0.45805  Biso   1.000  C
  C623     1.0000 0.49779  0.87439  0.57029  Biso   1.000  C
  C624     1.0000 0.45014  0.87816  0.59223  Biso   1.000  C
  C625     1.0000 0.17428  0.90769  0.18219  Biso   1.000  C
  C626     1.0000 0.15235  0.90392  0.16025  Biso   1.000  C
  C627     1.0000 0.38499  0.69699  0.24679  Biso   1.000  C
  C628     1.0000 0.38122  0.67505  0.29443  Biso   1.000  C
  C629     1.0000 0.23888  0.69699  0.39289  Biso   1.000  C
  C630     1.0000 0.28653  0.67505  0.38913  Biso   1.000  C
  C631     1.0000 0.17428  0.76159  0.18219  Biso   1.000  C
  C632     1.0000 0.15235  0.80923  0.16025  Biso   1.000  C
  C633     1.0000 0.17428  0.90769  0.24679  Biso   1.000  C
  C634     1.0000 0.15235  0.90392  0.29443  Biso   1.000  C
  C635     1.0000 0.23888  0.69699  0.18219  Biso   1.000  C
  C636     1.0000 0.28653  0.67505  0.16025  Biso   1.000  C
  C637     1.0000 0.38499  0.69699  0.18219  Biso   1.000  C
  C638     1.0000 0.38122  0.67505  0.16025  Biso   1.000  C
  C639     1.0000 0.17428  0.76159  0.39289  Biso   1.000  C
  C640     1.0000 0.15235  0.80923  0.38913  Biso   1.000  C
  C641     1.0000 0.23888  0.90769  0.18219  Biso   1.000  C
  C642     1.0000 0.28653  0.90392  0.16025  Biso   1.000  C
  C643     1.0000 0.17428  0.69699  0.39289  Biso   1.000  C
  C644     1.0000 0.15235  0.67505  0.38913  Biso   1.000  C
  C645     1.0000 0.17428  0.69699  0.24679  Biso   1.000  C
  C646     1.0000 0.15235  0.67505  0.29443  Biso   1.000  C
  C647     1.0000 0.38499  0.76159  0.18219  Biso   1.000  C
  C648     1.0000 0.38122  0.80923  0.16025  Biso   1.000  C
  O193     1.0000 0.35772  0.64437  0.57038  Biso   1.000  O
  O194     1.0000 0.12167  0.88042  0.43939  Biso   1.000  O
  O195     1.0000 0.56248  0.95419  0.36562  Biso   1.000  O
  O196     1.0000 0.43148  0.08518  0.12958  Biso   1.000  O
  O197     1.0000 0.35772  0.08518  0.43939  Biso   1.000  O
  O198     1.0000 0.12167  0.95419  0.57038  Biso   1.000  O
  O199     1.0000 0.56248  0.88042  0.12958  Biso   1.000  O
  O200     1.0000 0.43148  0.64437  0.36562  Biso   1.000  O
  O201     1.0000 0.35772  0.95419  0.12958  Biso   1.000  O
  O202     1.0000 0.12167  0.08518  0.36562  Biso   1.000  O
  O203     1.0000 0.56248  0.64437  0.43939  Biso   1.000  O
  O204     1.0000 0.43148  0.88042  0.57038  Biso   1.000  O
  O205     1.0000 0.61500  0.90166  0.18210  Biso   1.000  O
  O206     1.0000 0.37896  0.13771  0.31310  Biso   1.000  O
  O207     1.0000 0.30519  0.69690  0.38686  Biso   1.000  O
  O208     1.0000 0.17419  0.82790  0.62291  Biso   1.000  O
  O209     1.0000 0.17419  0.90166  0.31310  Biso   1.000  O
  O210     1.0000 0.30519  0.13771  0.18210  Biso   1.000  O
  O211     1.0000 0.37896  0.69690  0.62291  Biso   1.000  O
  O212     1.0000 0.61500  0.82790  0.38686  Biso   1.000  O
  O213     1.0000 0.30519  0.90166  0.62291  Biso   1.000  O
  O214     1.0000 0.17419  0.13771  0.38686  Biso   1.000  O
  O215     1.0000 0.61500  0.69690  0.31310  Biso   1.000  O
  O216     1.0000 0.37896  0.82790  0.18210  Biso   1.000  O
  O217     1.0000 0.37896  0.13771  0.18210  Biso   1.000  O
  O218     1.0000 0.61500  0.90166  0.31310  Biso   1.000  O
  O219     1.0000 0.17419  0.82790  0.38686  Biso   1.000  O
  O220     1.0000 0.30519  0.69690  0.62291  Biso   1.000  O
  O221     1.0000 0.37896  0.69690  0.31310  Biso   1.000  O
  O222     1.0000 0.61500  0.82790  0.18210  Biso   1.000  O
  O223     1.0000 0.17419  0.90166  0.62291  Biso   1.000  O
  O224     1.0000 0.30519  0.13771  0.38686  Biso   1.000  O
  O225     1.0000 0.37896  0.82790  0.62291  Biso   1.000  O
  O226     1.0000 0.61500  0.69690  0.38686  Biso   1.000  O
  O227     1.0000 0.17419  0.13771  0.31310  Biso   1.000  O
  O228     1.0000 0.30519  0.90166  0.18210  Biso   1.000  O
  O229     1.0000 0.12167  0.88042  0.57038  Biso   1.000  O
  O230     1.0000 0.35772  0.64437  0.43939  Biso   1.000  O
  O231     1.0000 0.43148  0.08518  0.36562  Biso   1.000  O
  O232     1.0000 0.56248  0.95419  0.12958  Biso   1.000  O
  O233     1.0000 0.56248  0.88042  0.43939  Biso   1.000  O
  O234     1.0000 0.43148  0.64437  0.57038  Biso   1.000  O
  O235     1.0000 0.35772  0.08518  0.12958  Biso   1.000  O
  O236     1.0000 0.12167  0.95419  0.36562  Biso   1.000  O
  O237     1.0000 0.43148  0.88042  0.12958  Biso   1.000  O
  O238     1.0000 0.56248  0.64437  0.36562  Biso   1.000  O
  O239     1.0000 0.12167  0.08518  0.43939  Biso   1.000  O
  O240     1.0000 0.35772  0.95419  0.57038  Biso   1.000  O
  Cu61     1.0000 0.36834  0.67558  0.09261  Biso   1.000  Cu
  Cu62     1.0000 0.15288  0.89104  0.87715  Biso   1.000  Cu
  Cu63     1.0000 0.58380  0.89104  0.87715  Biso   1.000  Cu
  Cu64     1.0000 0.36834  0.10650  0.66169  Biso   1.000  Cu
  Cu65     1.0000 0.36834  0.10650  0.87715  Biso   1.000  Cu
  Cu66     1.0000 0.15288  0.89104  0.09261  Biso   1.000  Cu
  Cu67     1.0000 0.58380  0.89104  0.66169  Biso   1.000  Cu
  Cu68     1.0000 0.36834  0.67558  0.87715  Biso   1.000  Cu
  Cu69     1.0000 0.36834  0.89104  0.66169  Biso   1.000  Cu
  Cu70     1.0000 0.15288  0.10650  0.87715  Biso   1.000  Cu
  Cu71     1.0000 0.58380  0.67558  0.87715  Biso   1.000  Cu
  Cu72     1.0000 0.36834  0.89104  0.09261  Biso   1.000  Cu
  H265     1.0000 0.35241  0.13558  0.01330  Biso   1.000  H
  H266     1.0000 0.61288  0.87511  0.01330  Biso   1.000  H
  H267     1.0000 0.50448  0.02719  0.86122  Biso   1.000  H
  H268     1.0000 0.50448  0.02719  0.12169  Biso   1.000  H
  H269     1.0000 0.35241  0.02719  0.01330  Biso   1.000  H
  H270     1.0000 0.61288  0.02719  0.01330  Biso   1.000  H
  H271     1.0000 0.50448  0.87511  0.12169  Biso   1.000  H
  H272     1.0000 0.50448  0.13558  0.86122  Biso   1.000  H
  H273     1.0000 0.35241  0.02719  0.12169  Biso   1.000  H
  H274     1.0000 0.61288  0.02719  0.86122  Biso   1.000  H
  H275     1.0000 0.50448  0.13558  0.01330  Biso   1.000  H
  H276     1.0000 0.50448  0.87511  0.01330  Biso   1.000  H
  H277     1.0000 0.12379  0.90697  0.74100  Biso   1.000  H
  H278     1.0000 0.38426  0.64650  0.74100  Biso   1.000  H
  H279     1.0000 0.23219  0.75489  0.89308  Biso   1.000  H
  H280     1.0000 0.23219  0.75489  0.63261  Biso   1.000  H
  H281     1.0000 0.23219  0.90697  0.74100  Biso   1.000  H
  H282     1.0000 0.23219  0.64650  0.74100  Biso   1.000  H
  H283     1.0000 0.38426  0.75489  0.63261  Biso   1.000  H
  H284     1.0000 0.12379  0.75489  0.89308  Biso   1.000  H
  H285     1.0000 0.23219  0.90697  0.63261  Biso   1.000  H
  H286     1.0000 0.23219  0.64650  0.89308  Biso   1.000  H
  H287     1.0000 0.12379  0.75489  0.74100  Biso   1.000  H
  H288     1.0000 0.38426  0.75489  0.74100  Biso   1.000  H
  C649     1.0000 0.35198  0.10686  0.02787  Biso   1.000  C
  C650     1.0000 0.58416  0.87468  0.02787  Biso   1.000  C
  C651     1.0000 0.51906  0.04176  0.86079  Biso   1.000  C
  C652     1.0000 0.51906  0.04176  0.09297  Biso   1.000  C
  C653     1.0000 0.35198  0.04176  0.02787  Biso   1.000  C
  C654     1.0000 0.58416  0.04176  0.02787  Biso   1.000  C
  C655     1.0000 0.51906  0.87468  0.09297  Biso   1.000  C
  C656     1.0000 0.51906  0.10686  0.86079  Biso   1.000  C
  C657     1.0000 0.35198  0.04176  0.09297  Biso   1.000  C
  C658     1.0000 0.58416  0.04176  0.86079  Biso   1.000  C
  C659     1.0000 0.51906  0.10686  0.02787  Biso   1.000  C
  C660     1.0000 0.51906  0.87468  0.02787  Biso   1.000  C
  C661     1.0000 0.15252  0.90740  0.72643  Biso   1.000  C
  C662     1.0000 0.38470  0.67522  0.72643  Biso   1.000  C
  C663     1.0000 0.21761  0.74032  0.89351  Biso   1.000  C
  C664     1.0000 0.21761  0.74032  0.66133  Biso   1.000  C
  C665     1.0000 0.21761  0.90740  0.72643  Biso   1.000  C
  C666     1.0000 0.21761  0.67522  0.72643  Biso   1.000  C
  C667     1.0000 0.38470  0.74032  0.66133  Biso   1.000  C
  C668     1.0000 0.15252  0.74032  0.89351  Biso   1.000  C
  C669     1.0000 0.21761  0.90740  0.66133  Biso   1.000  C
  C670     1.0000 0.21761  0.67522  0.89351  Biso   1.000  C
  C671     1.0000 0.15252  0.74032  0.72643  Biso   1.000  C
  C672     1.0000 0.38470  0.74032  0.72643  Biso   1.000  C
  C673     1.0000 0.35169  0.08509  0.07120  Biso   1.000  C
  C674     1.0000 0.35545  0.10703  0.09314  Biso   1.000  C
  C675     1.0000 0.56239  0.87439  0.00660  Biso   1.000  C
  C676     1.0000 0.58433  0.87816  0.95896  Biso   1.000  C
  C677     1.0000 0.56239  0.02050  0.86050  Biso   1.000  C
  C678     1.0000 0.58433  0.97285  0.86427  Biso   1.000  C
  C679     1.0000 0.49779  0.08509  0.07120  Biso   1.000  C
  C680     1.0000 0.45014  0.10703  0.09314  Biso   1.000  C
  C681     1.0000 0.35169  0.08509  0.00660  Biso   1.000  C
  C682     1.0000 0.35545  0.10703  0.95896  Biso   1.000  C
  C683     1.0000 0.56239  0.02050  0.07120  Biso   1.000  C
  C684     1.0000 0.58433  0.97285  0.09314  Biso   1.000  C
  C685     1.0000 0.56239  0.87439  0.07120  Biso   1.000  C
  C686     1.0000 0.58433  0.87816  0.09314  Biso   1.000  C
  C687     1.0000 0.49779  0.08509  0.86050  Biso   1.000  C
  C688     1.0000 0.45014  0.10703  0.86427  Biso   1.000  C
  C689     1.0000 0.35169  0.02050  0.07120  Biso   1.000  C
  C690     1.0000 0.35545  0.97285  0.09314  Biso   1.000  C
  C691     1.0000 0.56239  0.08509  0.86050  Biso   1.000  C
  C692     1.0000 0.58433  0.10703  0.86427  Biso   1.000  C
  C693     1.0000 0.56239  0.08509  0.00660  Biso   1.000  C
  C694     1.0000 0.58433  0.10703  0.95896  Biso   1.000  C
  C695     1.0000 0.49779  0.87439  0.07120  Biso   1.000  C
  C696     1.0000 0.45014  0.87816  0.09314  Biso   1.000  C
  C697     1.0000 0.17428  0.90769  0.68310  Biso   1.000  C
  C698     1.0000 0.15235  0.90392  0.66116  Biso   1.000  C
  C699     1.0000 0.38499  0.69699  0.74769  Biso   1.000  C
  C700     1.0000 0.38122  0.67505  0.79534  Biso   1.000  C
  C701     1.0000 0.23888  0.69699  0.89380  Biso   1.000  C
  C702     1.0000 0.28653  0.67505  0.89003  Biso   1.000  C
  C703     1.0000 0.17428  0.76159  0.68310  Biso   1.000  C
  C704     1.0000 0.15235  0.80923  0.66116  Biso   1.000  C
  C705     1.0000 0.17428  0.90769  0.74769  Biso   1.000  C
  C706     1.0000 0.15235  0.90392  0.79534  Biso   1.000  C
  C707     1.0000 0.23888  0.69699  0.68310  Biso   1.000  C
  C708     1.0000 0.28653  0.67505  0.66116  Biso   1.000  C
  C709     1.0000 0.38499  0.69699  0.68310  Biso   1.000  C
  C710     1.0000 0.38122  0.67505  0.66116  Biso   1.000  C
  C711     1.0000 0.17428  0.76159  0.89380  Biso   1.000  C
  C712     1.0000 0.15235  0.80923  0.89003  Biso   1.000  C
  C713     1.0000 0.23888  0.90769  0.68310  Biso   1.000  C
  C714     1.0000 0.28653  0.90392  0.66116  Biso   1.000  C
  C715     1.0000 0.17428  0.69699  0.89380  Biso   1.000  C
  C716     1.0000 0.15235  0.67505  0.89003  Biso   1.000  C
  C717     1.0000 0.17428  0.69699  0.74769  Biso   1.000  C
  C718     1.0000 0.15235  0.67505  0.79534  Biso   1.000  C
  C719     1.0000 0.38499  0.76159  0.68310  Biso   1.000  C
  C720     1.0000 0.38122  0.80923  0.66116  Biso   1.000  C
  O241     1.0000 0.35772  0.64437  0.07129  Biso   1.000  O
  O242     1.0000 0.12167  0.88042  0.94029  Biso   1.000  O
  O243     1.0000 0.56248  0.95419  0.86653  Biso   1.000  O
  O244     1.0000 0.43148  0.08518  0.63048  Biso   1.000  O
  O245     1.0000 0.35772  0.08518  0.94029  Biso   1.000  O
  O246     1.0000 0.12167  0.95419  0.07129  Biso   1.000  O
  O247     1.0000 0.56248  0.88042  0.63048  Biso   1.000  O
  O248     1.0000 0.43148  0.64437  0.86653  Biso   1.000  O
  O249     1.0000 0.35772  0.95419  0.63048  Biso   1.000  O
  O250     1.0000 0.12167  0.08518  0.86653  Biso   1.000  O
  O251     1.0000 0.56248  0.64437  0.94029  Biso   1.000  O
  O252     1.0000 0.43148  0.88042  0.07129  Biso   1.000  O
  O253     1.0000 0.61500  0.90166  0.68301  Biso   1.000  O
  O254     1.0000 0.37896  0.13771  0.81400  Biso   1.000  O
  O255     1.0000 0.30519  0.69690  0.88777  Biso   1.000  O
  O256     1.0000 0.17419  0.82790  0.12382  Biso   1.000  O
  O257     1.0000 0.17419  0.90166  0.81400  Biso   1.000  O
  O258     1.0000 0.30519  0.13771  0.68301  Biso   1.000  O
  O259     1.0000 0.37896  0.69690  0.12382  Biso   1.000  O
  O260     1.0000 0.61500  0.82790  0.88777  Biso   1.000  O
  O261     1.0000 0.30519  0.90166  0.12382  Biso   1.000  O
  O262     1.0000 0.17419  0.13771  0.88777  Biso   1.000  O
  O263     1.0000 0.61500  0.69690  0.81400  Biso   1.000  O
  O264     1.0000 0.37896  0.82790  0.68301  Biso   1.000  O
  O265     1.0000 0.37896  0.13771  0.68301  Biso   1.000  O
  O266     1.0000 0.61500  0.90166  0.81400  Biso   1.000  O
  O267     1.0000 0.17419  0.82790  0.88777  Biso   1.000  O
  O268     1.0000 0.30519  0.69690  0.12382  Biso   1.000  O
  O269     1.0000 0.37896  0.69690  0.81400  Biso   1.000  O
  O270     1.0000 0.61500  0.82790  0.68301  Biso   1.000  O
  O271     1.0000 0.17419  0.90166  0.12382  Biso   1.000  O
  O272     1.0000 0.30519  0.13771  0.88777  Biso   1.000  O
  O273     1.0000 0.37896  0.82790  0.12382  Biso   1.000  O
  O274     1.0000 0.61500  0.69690  0.88777  Biso   1.000  O
  O275     1.0000 0.17419  0.13771  0.81400  Biso   1.000  O
  O276     1.0000 0.30519  0.90166  0.68301  Biso   1.000  O
  O277     1.0000 0.12167  0.88042  0.07129  Biso   1.000  O
  O278     1.0000 0.35772  0.64437  0.94029  Biso   1.000  O
  O279     1.0000 0.43148  0.08518  0.86653  Biso   1.000  O
  O280     1.0000 0.56248  0.95419  0.63048  Biso   1.000  O
  O281     1.0000 0.56248  0.88042  0.94029  Biso   1.000  O
  O282     1.0000 0.43148  0.64437  0.07129  Biso   1.000  O
  O283     1.0000 0.35772  0.08518  0.63048  Biso   1.000  O
  O284     1.0000 0.12167  0.95419  0.86653  Biso   1.000  O
  O285     1.0000 0.43148  0.88042  0.63048  Biso   1.000  O
  O286     1.0000 0.56248  0.64437  0.86653  Biso   1.000  O
  O287     1.0000 0.12167  0.08518  0.94029  Biso   1.000  O
  O288     1.0000 0.35772  0.95419  0.07129  Biso   1.000  O
  Cu73     1.0000 0.86924  0.17467  0.59170  Biso   1.000  Cu
  Cu74     1.0000 0.65378  0.39013  0.37624  Biso   1.000  Cu
  Cu75     1.0000 0.08470  0.39013  0.37624  Biso   1.000  Cu
  Cu76     1.0000 0.86924  0.60559  0.16078  Biso   1.000  Cu
  Cu77     1.0000 0.86924  0.60559  0.37624  Biso   1.000  Cu
  Cu78     1.0000 0.65378  0.39013  0.59170  Biso   1.000  Cu
  Cu79     1.0000 0.08470  0.39013  0.16078  Biso   1.000  Cu
  Cu80     1.0000 0.86924  0.17467  0.37624  Biso   1.000  Cu
  Cu81     1.0000 0.86924  0.39013  0.16078  Biso   1.000  Cu
  Cu82     1.0000 0.65378  0.60559  0.37624  Biso   1.000  Cu
  Cu83     1.0000 0.08470  0.17467  0.37624  Biso   1.000  Cu
  Cu84     1.0000 0.86924  0.39013  0.59170  Biso   1.000  Cu
  H289     1.0000 0.85331  0.63468  0.51239  Biso   1.000  H
  H290     1.0000 0.11379  0.37421  0.51239  Biso   1.000  H
  H291     1.0000 0.00539  0.52628  0.36031  Biso   1.000  H
  H292     1.0000 0.00539  0.52628  0.62078  Biso   1.000  H
  H293     1.0000 0.85331  0.52628  0.51239  Biso   1.000  H
  H294     1.0000 0.11379  0.52628  0.51239  Biso   1.000  H
  H295     1.0000 0.00539  0.37421  0.62078  Biso   1.000  H
  H296     1.0000 0.00539  0.63468  0.36031  Biso   1.000  H
  H297     1.0000 0.85331  0.52628  0.62078  Biso   1.000  H
  H298     1.0000 0.11379  0.52628  0.36031  Biso   1.000  H
  H299     1.0000 0.00539  0.63468  0.51239  Biso   1.000  H
  H300     1.0000 0.00539  0.37421  0.51239  Biso   1.000  H
  H301     1.0000 0.62470  0.40606  0.24010  Biso   1.000  H
  H302     1.0000 0.88517  0.14559  0.24010  Biso   1.000  H
  H303     1.0000 0.73310  0.25399  0.39217  Biso   1.000  H
  H304     1.0000 0.73310  0.25399  0.13170  Biso   1.000  H
  H305     1.0000 0.73310  0.40606  0.24010  Biso   1.000  H
  H306     1.0000 0.73310  0.14559  0.24010  Biso   1.000  H
  H307     1.0000 0.88517  0.25399  0.13170  Biso   1.000  H
  H308     1.0000 0.62470  0.25399  0.39217  Biso   1.000  H
  H309     1.0000 0.73310  0.40606  0.13170  Biso   1.000  H
  H310     1.0000 0.73310  0.14559  0.39217  Biso   1.000  H
  H311     1.0000 0.62470  0.25399  0.24010  Biso   1.000  H
  H312     1.0000 0.88517  0.25399  0.24010  Biso   1.000  H
  C721     1.0000 0.85288  0.60595  0.52696  Biso   1.000  C
  C722     1.0000 0.08506  0.37377  0.52696  Biso   1.000  C
  C723     1.0000 0.01997  0.54086  0.35988  Biso   1.000  C
  C724     1.0000 0.01997  0.54086  0.59206  Biso   1.000  C
  C725     1.0000 0.85288  0.54086  0.52696  Biso   1.000  C
  C726     1.0000 0.08506  0.54086  0.52696  Biso   1.000  C
  C727     1.0000 0.01997  0.37377  0.59206  Biso   1.000  C
  C728     1.0000 0.01997  0.60595  0.35988  Biso   1.000  C
  C729     1.0000 0.85288  0.54086  0.59206  Biso   1.000  C
  C730     1.0000 0.08506  0.54086  0.35988  Biso   1.000  C
  C731     1.0000 0.01997  0.60595  0.52696  Biso   1.000  C
  C732     1.0000 0.01997  0.37377  0.52696  Biso   1.000  C
  C733     1.0000 0.65342  0.40649  0.22552  Biso   1.000  C
  C734     1.0000 0.88560  0.17431  0.22552  Biso   1.000  C
  C735     1.0000 0.71852  0.23941  0.39260  Biso   1.000  C
  C736     1.0000 0.71852  0.23941  0.16042  Biso   1.000  C
  C737     1.0000 0.71852  0.40649  0.22552  Biso   1.000  C
  C738     1.0000 0.71852  0.17431  0.22552  Biso   1.000  C
  C739     1.0000 0.88560  0.23941  0.16042  Biso   1.000  C
  C740     1.0000 0.65342  0.23941  0.39260  Biso   1.000  C
  C741     1.0000 0.71852  0.40649  0.16042  Biso   1.000  C
  C742     1.0000 0.71852  0.17431  0.39260  Biso   1.000  C
  C743     1.0000 0.65342  0.23941  0.22552  Biso   1.000  C
  C744     1.0000 0.88560  0.23941  0.22552  Biso   1.000  C
  C745     1.0000 0.85259  0.58419  0.57029  Biso   1.000  C
  C746     1.0000 0.85636  0.60612  0.59223  Biso   1.000  C
  C747     1.0000 0.06329  0.37348  0.50570  Biso   1.000  C
  C748     1.0000 0.08523  0.37725  0.45805  Biso   1.000  C
  C749     1.0000 0.06329  0.51959  0.35959  Biso   1.000  C
  C750     1.0000 0.08523  0.47194  0.36336  Biso   1.000  C
  C751     1.0000 0.99870  0.58419  0.57029  Biso   1.000  C
  C752     1.0000 0.95105  0.60612  0.59223  Biso   1.000  C
  C753     1.0000 0.85259  0.58419  0.50570  Biso   1.000  C
  C754     1.0000 0.85636  0.60612  0.45805  Biso   1.000  C
  C755     1.0000 0.06329  0.51959  0.57029  Biso   1.000  C
  C756     1.0000 0.08523  0.47194  0.59223  Biso   1.000  C
  C757     1.0000 0.06329  0.37348  0.57029  Biso   1.000  C
  C758     1.0000 0.08523  0.37725  0.59223  Biso   1.000  C
  C759     1.0000 0.99870  0.58419  0.35959  Biso   1.000  C
  C760     1.0000 0.95105  0.60613  0.36336  Biso   1.000  C
  C761     1.0000 0.85259  0.51959  0.57029  Biso   1.000  C
  C762     1.0000 0.85636  0.47194  0.59223  Biso   1.000  C
  C763     1.0000 0.06329  0.58419  0.35959  Biso   1.000  C
  C764     1.0000 0.08523  0.60613  0.36336  Biso   1.000  C
  C765     1.0000 0.06329  0.58419  0.50570  Biso   1.000  C
  C766     1.0000 0.08523  0.60612  0.45805  Biso   1.000  C
  C767     1.0000 0.99870  0.37348  0.57029  Biso   1.000  C
  C768     1.0000 0.95105  0.37725  0.59223  Biso   1.000  C
  C769     1.0000 0.67519  0.40678  0.18219  Biso   1.000  C
  C770     1.0000 0.65325  0.40302  0.16025  Biso   1.000  C
  C771     1.0000 0.88589  0.19608  0.24679  Biso   1.000  C
  C772     1.0000 0.88213  0.17414  0.29443  Biso   1.000  C
  C773     1.0000 0.73979  0.19608  0.39289  Biso   1.000  C
  C774     1.0000 0.78743  0.17414  0.38913  Biso   1.000  C
  C775     1.0000 0.67519  0.26068  0.18219  Biso   1.000  C
  C776     1.0000 0.65325  0.30833  0.16025  Biso   1.000  C
  C777     1.0000 0.67519  0.40678  0.24679  Biso   1.000  C
  C778     1.0000 0.65325  0.40302  0.29443  Biso   1.000  C
  C779     1.0000 0.73979  0.19608  0.18219  Biso   1.000  C
  C780     1.0000 0.78743  0.17414  0.16025  Biso   1.000  C
  C781     1.0000 0.88589  0.19608  0.18219  Biso   1.000  C
  C782     1.0000 0.88213  0.17414  0.16025  Biso   1.000  C
  C783     1.0000 0.67519  0.26068  0.39289  Biso   1.000  C
  C784     1.0000 0.65325  0.30833  0.38913  Biso   1.000  C
  C785     1.0000 0.73979  0.40678  0.18219  Biso   1.000  C
  C786     1.0000 0.78743  0.40302  0.16025  Biso   1.000  C
  C787     1.0000 0.67519  0.19608  0.39289  Biso   1.000  C
  C788     1.0000 0.65325  0.17414  0.38913  Biso   1.000  C
  C789     1.0000 0.67519  0.19608  0.24679  Biso   1.000  C
  C790     1.0000 0.65325  0.17414  0.29443  Biso   1.000  C
  C791     1.0000 0.88589  0.26068  0.18219  Biso   1.000  C
  C792     1.0000 0.88213  0.30833  0.16025  Biso   1.000  C
  O289     1.0000 0.85862  0.14347  0.57038  Biso   1.000  O
  O290     1.0000 0.62258  0.37951  0.43939  Biso   1.000  O
  O291     1.0000 0.06338  0.45328  0.36562  Biso   1.000  O
  O292     1.0000 0.93239  0.58428  0.12958  Biso   1.000  O
  O293     1.0000 0.85862  0.58428  0.43939  Biso   1.000  O
  O294     1.0000 0.62258  0.45328  0.57038  Biso   1.000  O
  O295     1.0000 0.06338  0.37951  0.12958  Biso   1.000  O
  O296     1.0000 0.93239  0.14347  0.36562  Biso   1.000  O
  O297     1.0000 0.85862  0.45328  0.12958  Biso   1.000  O
  O298     1.0000 0.62258  0.58428  0.36562  Biso   1.000  O
  O299     1.0000 0.06338  0.14347  0.43939  Biso   1.000  O
  O300     1.0000 0.93239  0.37951  0.57038  Biso   1.000  O
  O301     1.0000 0.11591  0.40075  0.18210  Biso   1.000  O
  O302     1.0000 0.87986  0.63680  0.31310  Biso   1.000  O
  O303     1.0000 0.80610  0.19599  0.38686  Biso   1.000  O
  O304     1.0000 0.67510  0.32699  0.62291  Biso   1.000  O
  O305     1.0000 0.67510  0.40075  0.31310  Biso   1.000  O
  O306     1.0000 0.80610  0.63680  0.18210  Biso   1.000  O
  O307     1.0000 0.87986  0.19599  0.62291  Biso   1.000  O
  O308     1.0000 0.11591  0.32699  0.38686  Biso   1.000  O
  O309     1.0000 0.80610  0.40075  0.62291  Biso   1.000  O
  O310     1.0000 0.67510  0.63680  0.38686  Biso   1.000  O
  O311     1.0000 0.11591  0.19599  0.31310  Biso   1.000  O
  O312     1.0000 0.87986  0.32699  0.18210  Biso   1.000  O
  O313     1.0000 0.87986  0.63680  0.18210  Biso   1.000  O
  O314     1.0000 0.11591  0.40075  0.31310  Biso   1.000  O
  O315     1.0000 0.67510  0.32699  0.38686  Biso   1.000  O
  O316     1.0000 0.80610  0.19599  0.62291  Biso   1.000  O
  O317     1.0000 0.87986  0.19599  0.31310  Biso   1.000  O
  O318     1.0000 0.11591  0.32699  0.18210  Biso   1.000  O
  O319     1.0000 0.67510  0.40075  0.62291  Biso   1.000  O
  O320     1.0000 0.80610  0.63680  0.38686  Biso   1.000  O
  O321     1.0000 0.87986  0.32699  0.62291  Biso   1.000  O
  O322     1.0000 0.11591  0.19599  0.38686  Biso   1.000  O
  O323     1.0000 0.67510  0.63680  0.31310  Biso   1.000  O
  O324     1.0000 0.80610  0.40075  0.18210  Biso   1.000  O
  O325     1.0000 0.62258  0.37951  0.57038  Biso   1.000  O
  O326     1.0000 0.85862  0.14347  0.43939  Biso   1.000  O
  O327     1.0000 0.93239  0.58428  0.36562  Biso   1.000  O
  O328     1.0000 0.06338  0.45328  0.12958  Biso   1.000  O
  O329     1.0000 0.06338  0.37951  0.43939  Biso   1.000  O
  O330     1.0000 0.93239  0.14347  0.57038  Biso   1.000  O
  O331     1.0000 0.85862  0.58428  0.12958  Biso   1.000  O
  O332     1.0000 0.62258  0.45328  0.36562  Biso   1.000  O
  O333     1.0000 0.93239  0.37951  0.12958  Biso   1.000  O
  O334     1.0000 0.06338  0.14347  0.36562  Biso   1.000  O
  O335     1.0000 0.62258  0.58428  0.43939  Biso   1.000  O
  O336     1.0000 0.85862  0.45328  0.57038  Biso   1.000  O
  Cu85     1.0000 0.86924  0.17467  0.09261  Biso   1.000  Cu
  Cu86     1.0000 0.65378  0.39013  0.87715  Biso   1.000  Cu
  Cu87     1.0000 0.08470  0.39013  0.87715  Biso   1.000  Cu
  Cu88     1.0000 0.86924  0.60559  0.66169  Biso   1.000  Cu
  Cu89     1.0000 0.86924  0.60559  0.87715  Biso   1.000  Cu
  Cu90     1.0000 0.65378  0.39013  0.09261  Biso   1.000  Cu
  Cu91     1.0000 0.08470  0.39013  0.66169  Biso   1.000  Cu
  Cu92     1.0000 0.86924  0.17467  0.87715  Biso   1.000  Cu
  Cu93     1.0000 0.86924  0.39013  0.66169  Biso   1.000  Cu
  Cu94     1.0000 0.65378  0.60559  0.87715  Biso   1.000  Cu
  Cu95     1.0000 0.08470  0.17467  0.87715  Biso   1.000  Cu
  Cu96     1.0000 0.86924  0.39013  0.09261  Biso   1.000  Cu
  H313     1.0000 0.85331  0.63468  0.01330  Biso   1.000  H
  H314     1.0000 0.11379  0.37421  0.01330  Biso   1.000  H
  H315     1.0000 0.00539  0.52628  0.86122  Biso   1.000  H
  H316     1.0000 0.00539  0.52628  0.12169  Biso   1.000  H
  H317     1.0000 0.85331  0.52628  0.01330  Biso   1.000  H
  H318     1.0000 0.11379  0.52628  0.01330  Biso   1.000  H
  H319     1.0000 0.00539  0.37421  0.12169  Biso   1.000  H
  H320     1.0000 0.00539  0.63468  0.86122  Biso   1.000  H
  H321     1.0000 0.85331  0.52628  0.12169  Biso   1.000  H
  H322     1.0000 0.11379  0.52628  0.86122  Biso   1.000  H
  H323     1.0000 0.00539  0.63468  0.01330  Biso   1.000  H
  H324     1.0000 0.00539  0.37421  0.01330  Biso   1.000  H
  H325     1.0000 0.62470  0.40606  0.74100  Biso   1.000  H
  H326     1.0000 0.88517  0.14559  0.74100  Biso   1.000  H
  H327     1.0000 0.73310  0.25399  0.89308  Biso   1.000  H
  H328     1.0000 0.73310  0.25399  0.63261  Biso   1.000  H
  H329     1.0000 0.73310  0.40606  0.74100  Biso   1.000  H
  H330     1.0000 0.73310  0.14559  0.74100  Biso   1.000  H
  H331     1.0000 0.88517  0.25399  0.63261  Biso   1.000  H
  H332     1.0000 0.62470  0.25399  0.89308  Biso   1.000  H
  H333     1.0000 0.73310  0.40606  0.63261  Biso   1.000  H
  H334     1.0000 0.73310  0.14559  0.89308  Biso   1.000  H
  H335     1.0000 0.62470  0.25399  0.74100  Biso   1.000  H
  H336     1.0000 0.88517  0.25399  0.74100  Biso   1.000  H
  C793     1.0000 0.85288  0.60595  0.02787  Biso   1.000  C
  C794     1.0000 0.08506  0.37377  0.02787  Biso   1.000  C
  C795     1.0000 0.01997  0.54086  0.86079  Biso   1.000  C
  C796     1.0000 0.01997  0.54086  0.09297  Biso   1.000  C
  C797     1.0000 0.85288  0.54086  0.02787  Biso   1.000  C
  C798     1.0000 0.08506  0.54086  0.02787  Biso   1.000  C
  C799     1.0000 0.01997  0.37377  0.09297  Biso   1.000  C
  C800     1.0000 0.01997  0.60595  0.86079  Biso   1.000  C
  C801     1.0000 0.85288  0.54086  0.09297  Biso   1.000  C
  C802     1.0000 0.08506  0.54086  0.86079  Biso   1.000  C
  C803     1.0000 0.01997  0.60595  0.02787  Biso   1.000  C
  C804     1.0000 0.01997  0.37377  0.02787  Biso   1.000  C
  C805     1.0000 0.65342  0.40649  0.72643  Biso   1.000  C
  C806     1.0000 0.88560  0.17431  0.72643  Biso   1.000  C
  C807     1.0000 0.71852  0.23941  0.89351  Biso   1.000  C
  C808     1.0000 0.71852  0.23941  0.66133  Biso   1.000  C
  C809     1.0000 0.71852  0.40649  0.72643  Biso   1.000  C
  C810     1.0000 0.71852  0.17431  0.72643  Biso   1.000  C
  C811     1.0000 0.88560  0.23941  0.66133  Biso   1.000  C
  C812     1.0000 0.65342  0.23941  0.89351  Biso   1.000  C
  C813     1.0000 0.71852  0.40649  0.66133  Biso   1.000  C
  C814     1.0000 0.71852  0.17431  0.89351  Biso   1.000  C
  C815     1.0000 0.65342  0.23941  0.72643  Biso   1.000  C
  C816     1.0000 0.88560  0.23941  0.72643  Biso   1.000  C
  C817     1.0000 0.85259  0.58419  0.07120  Biso   1.000  C
  C818     1.0000 0.85636  0.60613  0.09314  Biso   1.000  C
  C819     1.0000 0.06329  0.37348  0.00660  Biso   1.000  C
  C820     1.0000 0.08523  0.37725  0.95896  Biso   1.000  C
  C821     1.0000 0.06329  0.51959  0.86050  Biso   1.000  C
  C822     1.0000 0.08523  0.47194  0.86427  Biso   1.000  C
  C823     1.0000 0.99870  0.58419  0.07120  Biso   1.000  C
  C824     1.0000 0.95105  0.60613  0.09314  Biso   1.000  C
  C825     1.0000 0.85259  0.58419  0.00660  Biso   1.000  C
  C826     1.0000 0.85636  0.60612  0.95896  Biso   1.000  C
  C827     1.0000 0.06329  0.51959  0.07120  Biso   1.000  C
  C828     1.0000 0.08523  0.47194  0.09314  Biso   1.000  C
  C829     1.0000 0.06329  0.37348  0.07120  Biso   1.000  C
  C830     1.0000 0.08523  0.37725  0.09314  Biso   1.000  C
  C831     1.0000 0.99870  0.58419  0.86050  Biso   1.000  C
  C832     1.0000 0.95105  0.60612  0.86427  Biso   1.000  C
  C833     1.0000 0.85259  0.51959  0.07120  Biso   1.000  C
  C834     1.0000 0.85636  0.47194  0.09314  Biso   1.000  C
  C835     1.0000 0.06329  0.58419  0.86050  Biso   1.000  C
  C836     1.0000 0.08523  0.60612  0.86427  Biso   1.000  C
  C837     1.0000 0.06329  0.58419  0.00660  Biso   1.000  C
  C838     1.0000 0.08523  0.60612  0.95896  Biso   1.000  C
  C839     1.0000 0.99870  0.37348  0.07120  Biso   1.000  C
  C840     1.0000 0.95105  0.37725  0.09314  Biso   1.000  C
  C841     1.0000 0.67519  0.40678  0.68310  Biso   1.000  C
  C842     1.0000 0.65325  0.40302  0.66116  Biso   1.000  C
  C843     1.0000 0.88589  0.19608  0.74769  Biso   1.000  C
  C844     1.0000 0.88213  0.17414  0.79534  Biso   1.000  C
  C845     1.0000 0.73979  0.19608  0.89380  Biso   1.000  C
  C846     1.0000 0.78743  0.17414  0.89003  Biso   1.000  C
  C847     1.0000 0.67519  0.26068  0.68310  Biso   1.000  C
  C848     1.0000 0.65325  0.30833  0.66116  Biso   1.000  C
  C849     1.0000 0.67519  0.40678  0.74769  Biso   1.000  C
  C850     1.0000 0.65325  0.40302  0.79534  Biso   1.000  C
  C851     1.0000 0.73979  0.19608  0.68310  Biso   1.000  C
  C852     1.0000 0.78743  0.17414  0.66116  Biso   1.000  C
  C853     1.0000 0.88589  0.19608  0.68310  Biso   1.000  C
  C854     1.0000 0.88213  0.17414  0.66116  Biso   1.000  C
  C855     1.0000 0.67519  0.26068  0.89380  Biso   1.000  C
  C856     1.0000 0.65325  0.30833  0.89003  Biso   1.000  C
  C857     1.0000 0.73979  0.40678  0.68310  Biso   1.000  C
  C858     1.0000 0.78743  0.40302  0.66116  Biso   1.000  C
  C859     1.0000 0.67519  0.19608  0.89380  Biso   1.000  C
  C860     1.0000 0.65325  0.17414  0.89003  Biso   1.000  C
  C861     1.0000 0.67519  0.19608  0.74769  Biso   1.000  C
  C862     1.0000 0.65325  0.17414  0.79534  Biso   1.000  C
  C863     1.0000 0.88589  0.26068  0.68310  Biso   1.000  C
  C864     1.0000 0.88213  0.30833  0.66116  Biso   1.000  C
  O337     1.0000 0.85862  0.14347  0.07129  Biso   1.000  O
  O338     1.0000 0.62258  0.37951  0.94029  Biso   1.000  O
  O339     1.0000 0.06338  0.45328  0.86653  Biso   1.000  O
  O340     1.0000 0.93239  0.58428  0.63048  Biso   1.000  O
  O341     1.0000 0.85862  0.58428  0.94029  Biso   1.000  O
  O342     1.0000 0.62258  0.45328  0.07129  Biso   1.000  O
  O343     1.0000 0.06338  0.37951  0.63048  Biso   1.000  O
  O344     1.0000 0.93239  0.14347  0.86653  Biso   1.000  O
  O345     1.0000 0.85862  0.45328  0.63048  Biso   1.000  O
  O346     1.0000 0.62258  0.58428  0.86653  Biso   1.000  O
  O347     1.0000 0.06338  0.14347  0.94029  Biso   1.000  O
  O348     1.0000 0.93239  0.37951  0.07129  Biso   1.000  O
  O349     1.0000 0.11591  0.40075  0.68301  Biso   1.000  O
  O350     1.0000 0.87986  0.63680  0.81400  Biso   1.000  O
  O351     1.0000 0.80610  0.19599  0.88777  Biso   1.000  O
  O352     1.0000 0.67510  0.32699  0.12382  Biso   1.000  O
  O353     1.0000 0.67510  0.40075  0.81400  Biso   1.000  O
  O354     1.0000 0.80610  0.63680  0.68301  Biso   1.000  O
  O355     1.0000 0.87986  0.19599  0.12382  Biso   1.000  O
  O356     1.0000 0.11591  0.32699  0.88777  Biso   1.000  O
  O357     1.0000 0.80610  0.40075  0.12382  Biso   1.000  O
  O358     1.0000 0.67510  0.63680  0.88777  Biso   1.000  O
  O359     1.0000 0.11591  0.19599  0.81400  Biso   1.000  O
  O360     1.0000 0.87986  0.32699  0.68301  Biso   1.000  O
  O361     1.0000 0.87986  0.63680  0.68301  Biso   1.000  O
  O362     1.0000 0.11591  0.40075  0.81400  Biso   1.000  O
  O363     1.0000 0.67510  0.32699  0.88777  Biso   1.000  O
  O364     1.0000 0.80610  0.19599  0.12382  Biso   1.000  O
  O365     1.0000 0.87986  0.19599  0.81400  Biso   1.000  O
  O366     1.0000 0.11591  0.32699  0.68301  Biso   1.000  O
  O367     1.0000 0.67510  0.40075  0.12382  Biso   1.000  O
  O368     1.0000 0.80610  0.63680  0.88777  Biso   1.000  O
  O369     1.0000 0.87986  0.32699  0.12382  Biso   1.000  O
  O370     1.0000 0.11591  0.19599  0.88777  Biso   1.000  O
  O371     1.0000 0.67510  0.63680  0.81400  Biso   1.000  O
  O372     1.0000 0.80610  0.40075  0.68301  Biso   1.000  O
  O373     1.0000 0.62258  0.37951  0.07129  Biso   1.000  O
  O374     1.0000 0.85862  0.14347  0.94029  Biso   1.000  O
  O375     1.0000 0.93239  0.58428  0.86653  Biso   1.000  O
  O376     1.0000 0.06338  0.45328  0.63048  Biso   1.000  O
  O377     1.0000 0.06338  0.37951  0.94029  Biso   1.000  O
  O378     1.0000 0.93239  0.14347  0.07129  Biso   1.000  O
  O379     1.0000 0.85862  0.58428  0.63048  Biso   1.000  O
  O380     1.0000 0.62258  0.45328  0.86653  Biso   1.000  O
  O381     1.0000 0.93239  0.37951  0.63048  Biso   1.000  O
  O382     1.0000 0.06338  0.14347  0.86653  Biso   1.000  O
  O383     1.0000 0.62258  0.58428  0.94029  Biso   1.000  O
  O384     1.0000 0.85862  0.45328  0.07129  Biso   1.000  O
  Cu97     1.0000 0.86924  0.67558  0.59170  Biso   1.000  Cu
  Cu98     1.0000 0.65378  0.89104  0.37624  Biso   1.000  Cu
  Cu99     1.0000 0.08470  0.89104  0.37624  Biso   1.000  Cu
  Cu100    1.0000 0.86924  0.10650  0.16078  Biso   1.000  Cu
  Cu101    1.0000 0.86924  0.10650  0.37624  Biso   1.000  Cu
  Cu102    1.0000 0.65378  0.89104  0.59170  Biso   1.000  Cu
  Cu103    1.0000 0.08470  0.89104  0.16078  Biso   1.000  Cu
  Cu104    1.0000 0.86924  0.67558  0.37624  Biso   1.000  Cu
  Cu105    1.0000 0.86924  0.89104  0.16078  Biso   1.000  Cu
  Cu106    1.0000 0.65378  0.10650  0.37624  Biso   1.000  Cu
  Cu107    1.0000 0.08470  0.67558  0.37624  Biso   1.000  Cu
  Cu108    1.0000 0.86924  0.89104  0.59170  Biso   1.000  Cu
  H337     1.0000 0.85331  0.13558  0.51239  Biso   1.000  H
  H338     1.0000 0.11379  0.87511  0.51239  Biso   1.000  H
  H339     1.0000 0.00539  0.02719  0.36031  Biso   1.000  H
  H340     1.0000 0.00539  0.02719  0.62078  Biso   1.000  H
  H341     1.0000 0.85331  0.02719  0.51239  Biso   1.000  H
  H342     1.0000 0.11379  0.02719  0.51239  Biso   1.000  H
  H343     1.0000 0.00539  0.87511  0.62078  Biso   1.000  H
  H344     1.0000 0.00539  0.13558  0.36031  Biso   1.000  H
  H345     1.0000 0.85331  0.02719  0.62078  Biso   1.000  H
  H346     1.0000 0.11379  0.02719  0.36031  Biso   1.000  H
  H347     1.0000 0.00539  0.13558  0.51239  Biso   1.000  H
  H348     1.0000 0.00539  0.87511  0.51239  Biso   1.000  H
  H349     1.0000 0.62470  0.90697  0.24010  Biso   1.000  H
  H350     1.0000 0.88517  0.64650  0.24010  Biso   1.000  H
  H351     1.0000 0.73310  0.75489  0.39217  Biso   1.000  H
  H352     1.0000 0.73310  0.75489  0.13170  Biso   1.000  H
  H353     1.0000 0.73310  0.90697  0.24010  Biso   1.000  H
  H354     1.0000 0.73310  0.64650  0.24010  Biso   1.000  H
  H355     1.0000 0.88517  0.75489  0.13170  Biso   1.000  H
  H356     1.0000 0.62470  0.75489  0.39217  Biso   1.000  H
  H357     1.0000 0.73310  0.90697  0.13170  Biso   1.000  H
  H358     1.0000 0.73310  0.64650  0.39217  Biso   1.000  H
  H359     1.0000 0.62470  0.75489  0.24010  Biso   1.000  H
  H360     1.0000 0.88517  0.75489  0.24010  Biso   1.000  H
  C865     1.0000 0.85288  0.10686  0.52696  Biso   1.000  C
  C866     1.0000 0.08506  0.87468  0.52696  Biso   1.000  C
  C867     1.0000 0.01997  0.04176  0.35988  Biso   1.000  C
  C868     1.0000 0.01997  0.04176  0.59206  Biso   1.000  C
  C869     1.0000 0.85288  0.04176  0.52696  Biso   1.000  C
  C870     1.0000 0.08506  0.04176  0.52696  Biso   1.000  C
  C871     1.0000 0.01997  0.87468  0.59206  Biso   1.000  C
  C872     1.0000 0.01997  0.10686  0.35988  Biso   1.000  C
  C873     1.0000 0.85288  0.04176  0.59206  Biso   1.000  C
  C874     1.0000 0.08506  0.04176  0.35988  Biso   1.000  C
  C875     1.0000 0.01997  0.10686  0.52696  Biso   1.000  C
  C876     1.0000 0.01997  0.87468  0.52696  Biso   1.000  C
  C877     1.0000 0.65342  0.90740  0.22552  Biso   1.000  C
  C878     1.0000 0.88560  0.67522  0.22552  Biso   1.000  C
  C879     1.0000 0.71852  0.74032  0.39260  Biso   1.000  C
  C880     1.0000 0.71852  0.74032  0.16042  Biso   1.000  C
  C881     1.0000 0.71852  0.90740  0.22552  Biso   1.000  C
  C882     1.0000 0.71852  0.67522  0.22552  Biso   1.000  C
  C883     1.0000 0.88560  0.74032  0.16042  Biso   1.000  C
  C884     1.0000 0.65342  0.74032  0.39260  Biso   1.000  C
  C885     1.0000 0.71852  0.90740  0.16042  Biso   1.000  C
  C886     1.0000 0.71852  0.67522  0.39260  Biso   1.000  C
  C887     1.0000 0.65342  0.74032  0.22552  Biso   1.000  C
  C888     1.0000 0.88560  0.74032  0.22552  Biso   1.000  C
  C889     1.0000 0.85259  0.08509  0.57029  Biso   1.000  C
  C890     1.0000 0.85636  0.10703  0.59223  Biso   1.000  C
  C891     1.0000 0.06329  0.87439  0.50570  Biso   1.000  C
  C892     1.0000 0.08523  0.87816  0.45805  Biso   1.000  C
  C893     1.0000 0.06329  0.02050  0.35959  Biso   1.000  C
  C894     1.0000 0.08523  0.97285  0.36336  Biso   1.000  C
  C895     1.0000 0.99870  0.08509  0.57029  Biso   1.000  C
  C896     1.0000 0.95105  0.10703  0.59223  Biso   1.000  C
  C897     1.0000 0.85259  0.08509  0.50570  Biso   1.000  C
  C898     1.0000 0.85636  0.10703  0.45805  Biso   1.000  C
  C899     1.0000 0.06329  0.02050  0.57029  Biso   1.000  C
  C900     1.0000 0.08523  0.97285  0.59223  Biso   1.000  C
  C901     1.0000 0.06329  0.87439  0.57029  Biso   1.000  C
  C902     1.0000 0.08523  0.87816  0.59223  Biso   1.000  C
  C903     1.0000 0.99870  0.08509  0.35959  Biso   1.000  C
  C904     1.0000 0.95105  0.10703  0.36336  Biso   1.000  C
  C905     1.0000 0.85259  0.02050  0.57029  Biso   1.000  C
  C906     1.0000 0.85636  0.97285  0.59223  Biso   1.000  C
  C907     1.0000 0.06329  0.08509  0.35959  Biso   1.000  C
  C908     1.0000 0.08523  0.10703  0.36336  Biso   1.000  C
  C909     1.0000 0.06329  0.08509  0.50570  Biso   1.000  C
  C910     1.0000 0.08523  0.10703  0.45805  Biso   1.000  C
  C911     1.0000 0.99870  0.87439  0.57029  Biso   1.000  C
  C912     1.0000 0.95105  0.87816  0.59223  Biso   1.000  C
  C913     1.0000 0.67519  0.90769  0.18219  Biso   1.000  C
  C914     1.0000 0.65325  0.90392  0.16025  Biso   1.000  C
  C915     1.0000 0.88589  0.69699  0.24679  Biso   1.000  C
  C916     1.0000 0.88213  0.67505  0.29443  Biso   1.000  C
  C917     1.0000 0.73979  0.69699  0.39289  Biso   1.000  C
  C918     1.0000 0.78743  0.67505  0.38913  Biso   1.000  C
  C919     1.0000 0.67519  0.76159  0.18219  Biso   1.000  C
  C920     1.0000 0.65325  0.80923  0.16025  Biso   1.000  C
  C921     1.0000 0.67519  0.90769  0.24679  Biso   1.000  C
  C922     1.0000 0.65325  0.90392  0.29443  Biso   1.000  C
  C923     1.0000 0.73979  0.69699  0.18219  Biso   1.000  C
  C924     1.0000 0.78743  0.67505  0.16025  Biso   1.000  C
  C925     1.0000 0.88589  0.69699  0.18219  Biso   1.000  C
  C926     1.0000 0.88213  0.67505  0.16025  Biso   1.000  C
  C927     1.0000 0.67519  0.76159  0.39289  Biso   1.000  C
  C928     1.0000 0.65325  0.80923  0.38913  Biso   1.000  C
  C929     1.0000 0.73979  0.90769  0.18219  Biso   1.000  C
  C930     1.0000 0.78743  0.90392  0.16025  Biso   1.000  C
  C931     1.0000 0.67519  0.69699  0.39289  Biso   1.000  C
  C932     1.0000 0.65325  0.67505  0.38913  Biso   1.000  C
  C933     1.0000 0.67519  0.69699  0.24679  Biso   1.000  C
  C934     1.0000 0.65325  0.67505  0.29443  Biso   1.000  C
  C935     1.0000 0.88589  0.76159  0.18219  Biso   1.000  C
  C936     1.0000 0.88213  0.80923  0.16025  Biso   1.000  C
  O385     1.0000 0.85862  0.64437  0.57038  Biso   1.000  O
  O386     1.0000 0.62258  0.88042  0.43939  Biso   1.000  O
  O387     1.0000 0.06338  0.95419  0.36562  Biso   1.000  O
  O388     1.0000 0.93239  0.08518  0.12958  Biso   1.000  O
  O389     1.0000 0.85862  0.08518  0.43939  Biso   1.000  O
  O390     1.0000 0.62258  0.95419  0.57038  Biso   1.000  O
  O391     1.0000 0.06338  0.88042  0.12958  Biso   1.000  O
  O392     1.0000 0.93239  0.64437  0.36562  Biso   1.000  O
  O393     1.0000 0.85862  0.95419  0.12958  Biso   1.000  O
  O394     1.0000 0.62258  0.08518  0.36562  Biso   1.000  O
  O395     1.0000 0.06338  0.64437  0.43939  Biso   1.000  O
  O396     1.0000 0.93239  0.88042  0.57038  Biso   1.000  O
  O397     1.0000 0.11591  0.90166  0.18210  Biso   1.000  O
  O398     1.0000 0.87986  0.13771  0.31310  Biso   1.000  O
  O399     1.0000 0.80610  0.69690  0.38686  Biso   1.000  O
  O400     1.0000 0.67510  0.82790  0.62291  Biso   1.000  O
  O401     1.0000 0.67510  0.90166  0.31310  Biso   1.000  O
  O402     1.0000 0.80610  0.13771  0.18210  Biso   1.000  O
  O403     1.0000 0.87986  0.69690  0.62291  Biso   1.000  O
  O404     1.0000 0.11591  0.82790  0.38686  Biso   1.000  O
  O405     1.0000 0.80610  0.90166  0.62291  Biso   1.000  O
  O406     1.0000 0.67510  0.13771  0.38686  Biso   1.000  O
  O407     1.0000 0.11591  0.69690  0.31310  Biso   1.000  O
  O408     1.0000 0.87986  0.82790  0.18210  Biso   1.000  O
  O409     1.0000 0.87986  0.13771  0.18210  Biso   1.000  O
  O410     1.0000 0.11591  0.90166  0.31310  Biso   1.000  O
  O411     1.0000 0.67510  0.82790  0.38686  Biso   1.000  O
  O412     1.0000 0.80610  0.69690  0.62291  Biso   1.000  O
  O413     1.0000 0.87986  0.69690  0.31310  Biso   1.000  O
  O414     1.0000 0.11591  0.82790  0.18210  Biso   1.000  O
  O415     1.0000 0.67510  0.90166  0.62291  Biso   1.000  O
  O416     1.0000 0.80610  0.13771  0.38686  Biso   1.000  O
  O417     1.0000 0.87986  0.82790  0.62291  Biso   1.000  O
  O418     1.0000 0.11591  0.69690  0.38686  Biso   1.000  O
  O419     1.0000 0.67510  0.13771  0.31310  Biso   1.000  O
  O420     1.0000 0.80610  0.90166  0.18210  Biso   1.000  O
  O421     1.0000 0.62258  0.88042  0.57038  Biso   1.000  O
  O422     1.0000 0.85862  0.64437  0.43939  Biso   1.000  O
  O423     1.0000 0.93239  0.08518  0.36562  Biso   1.000  O
  O424     1.0000 0.06338  0.95419  0.12958  Biso   1.000  O
  O425     1.0000 0.06338  0.88042  0.43939  Biso   1.000  O
  O426     1.0000 0.93239  0.64437  0.57038  Biso   1.000  O
  O427     1.0000 0.85862  0.08518  0.12958  Biso   1.000  O
  O428     1.0000 0.62258  0.95419  0.36562  Biso   1.000  O
  O429     1.0000 0.93239  0.88042  0.12958  Biso   1.000  O
  O430     1.0000 0.06338  0.64437  0.36562  Biso   1.000  O
  O431     1.0000 0.62258  0.08518  0.43939  Biso   1.000  O
  O432     1.0000 0.85862  0.95419  0.57038  Biso   1.000  O
  Cu109    1.0000 0.86924  0.67558  0.09261  Biso   1.000  Cu
  Cu110    1.0000 0.65378  0.89104  0.87715  Biso   1.000  Cu
  Cu111    1.0000 0.08470  0.89104  0.87715  Biso   1.000  Cu
  Cu112    1.0000 0.86924  0.10650  0.66169  Biso   1.000  Cu
  Cu113    1.0000 0.86924  0.10650  0.87715  Biso   1.000  Cu
  Cu114    1.0000 0.65378  0.89104  0.09261  Biso   1.000  Cu
  Cu115    1.0000 0.08470  0.89104  0.66169  Biso   1.000  Cu
  Cu116    1.0000 0.86924  0.67558  0.87715  Biso   1.000  Cu
  Cu117    1.0000 0.86924  0.89104  0.66169  Biso   1.000  Cu
  Cu118    1.0000 0.65378  0.10650  0.87715  Biso   1.000  Cu
  Cu119    1.0000 0.08470  0.67558  0.87715  Biso   1.000  Cu
  Cu120    1.0000 0.86924  0.89104  0.09261  Biso   1.000  Cu
  H361     1.0000 0.85331  0.13558  0.01330  Biso   1.000  H
  H362     1.0000 0.11379  0.87511  0.01330  Biso   1.000  H
  H363     1.0000 0.00539  0.02719  0.86122  Biso   1.000  H
  H364     1.0000 0.00539  0.02719  0.12169  Biso   1.000  H
  H365     1.0000 0.85331  0.02719  0.01330  Biso   1.000  H
  H366     1.0000 0.11379  0.02719  0.01330  Biso   1.000  H
  H367     1.0000 0.00539  0.87511  0.12169  Biso   1.000  H
  H368     1.0000 0.00539  0.13558  0.86122  Biso   1.000  H
  H369     1.0000 0.85331  0.02719  0.12169  Biso   1.000  H
  H370     1.0000 0.11379  0.02719  0.86122  Biso   1.000  H
  H371     1.0000 0.00539  0.13558  0.01330  Biso   1.000  H
  H372     1.0000 0.00539  0.87511  0.01330  Biso   1.000  H
  H373     1.0000 0.62470  0.90697  0.74100  Biso   1.000  H
  H374     1.0000 0.88517  0.64650  0.74100  Biso   1.000  H
  H375     1.0000 0.73310  0.75489  0.89308  Biso   1.000  H
  H376     1.0000 0.73310  0.75489  0.63261  Biso   1.000  H
  H377     1.0000 0.73310  0.90697  0.74100  Biso   1.000  H
  H378     1.0000 0.73310  0.64650  0.74100  Biso   1.000  H
  H379     1.0000 0.88517  0.75489  0.63261  Biso   1.000  H
  H380     1.0000 0.62470  0.75489  0.89308  Biso   1.000  H
  H381     1.0000 0.73310  0.90697  0.63261  Biso   1.000  H
  H382     1.0000 0.73310  0.64650  0.89308  Biso   1.000  H
  H383     1.0000 0.62470  0.75489  0.74100  Biso   1.000  H
  H384     1.0000 0.88517  0.75489  0.74100  Biso   1.000  H
  C937     1.0000 0.85288  0.10686  0.02787  Biso   1.000  C
  C938     1.0000 0.08506  0.87468  0.02787  Biso   1.000  C
  C939     1.0000 0.01997  0.04176  0.86079  Biso   1.000  C
  C940     1.0000 0.01997  0.04176  0.09297  Biso   1.000  C
  C941     1.0000 0.85288  0.04176  0.02787  Biso   1.000  C
  C942     1.0000 0.08506  0.04176  0.02787  Biso   1.000  C
  C943     1.0000 0.01997  0.87468  0.09297  Biso   1.000  C
  C944     1.0000 0.01997  0.10686  0.86079  Biso   1.000  C
  C945     1.0000 0.85288  0.04176  0.09297  Biso   1.000  C
  C946     1.0000 0.08506  0.04176  0.86079  Biso   1.000  C
  C947     1.0000 0.01997  0.10686  0.02787  Biso   1.000  C
  C948     1.0000 0.01997  0.87468  0.02787  Biso   1.000  C
  C949     1.0000 0.65342  0.90740  0.72643  Biso   1.000  C
  C950     1.0000 0.88560  0.67522  0.72643  Biso   1.000  C
  C951     1.0000 0.71852  0.74032  0.89351  Biso   1.000  C
  C952     1.0000 0.71852  0.74032  0.66133  Biso   1.000  C
  C953     1.0000 0.71852  0.90740  0.72643  Biso   1.000  C
  C954     1.0000 0.71852  0.67522  0.72643  Biso   1.000  C
  C955     1.0000 0.88560  0.74032  0.66133  Biso   1.000  C
  C956     1.0000 0.65342  0.74032  0.89351  Biso   1.000  C
  C957     1.0000 0.71852  0.90740  0.66133  Biso   1.000  C
  C958     1.0000 0.71852  0.67522  0.89351  Biso   1.000  C
  C959     1.0000 0.65342  0.74032  0.72643  Biso   1.000  C
  C960     1.0000 0.88560  0.74032  0.72643  Biso   1.000  C
  C961     1.0000 0.85259  0.08509  0.07120  Biso   1.000  C
  C962     1.0000 0.85636  0.10703  0.09314  Biso   1.000  C
  C963     1.0000 0.06329  0.87439  0.00660  Biso   1.000  C
  C964     1.0000 0.08523  0.87816  0.95896  Biso   1.000  C
  C965     1.0000 0.06329  0.02050  0.86050  Biso   1.000  C
  C966     1.0000 0.08523  0.97285  0.86427  Biso   1.000  C
  C967     1.0000 0.99870  0.08509  0.07120  Biso   1.000  C
  C968     1.0000 0.95105  0.10703  0.09314  Biso   1.000  C
  C969     1.0000 0.85259  0.08509  0.00660  Biso   1.000  C
  C970     1.0000 0.85636  0.10703  0.95896  Biso   1.000  C
  C971     1.0000 0.06329  0.02050  0.07120  Biso   1.000  C
  C972     1.0000 0.08523  0.97285  0.09314  Biso   1.000  C
  C973     1.0000 0.06329  0.87439  0.07120  Biso   1.000  C
  C974     1.0000 0.08523  0.87816  0.09314  Biso   1.000  C
  C975     1.0000 0.99870  0.08509  0.86050  Biso   1.000  C
  C976     1.0000 0.95105  0.10703  0.86427  Biso   1.000  C
  C977     1.0000 0.85259  0.02050  0.07120  Biso   1.000  C
  C978     1.0000 0.85636  0.97285  0.09314  Biso   1.000  C
  C979     1.0000 0.06329  0.08509  0.86050  Biso   1.000  C
  C980     1.0000 0.08523  0.10703  0.86427  Biso   1.000  C
  C981     1.0000 0.06329  0.08509  0.00660  Biso   1.000  C
  C982     1.0000 0.08523  0.10703  0.95896  Biso   1.000  C
  C983     1.0000 0.99870  0.87439  0.07120  Biso   1.000  C
  C984     1.0000 0.95105  0.87816  0.09314  Biso   1.000  C
  C985     1.0000 0.67519  0.90769  0.68310  Biso   1.000  C
  C986     1.0000 0.65325  0.90392  0.66116  Biso   1.000  C
  C987     1.0000 0.88589  0.69699  0.74769  Biso   1.000  C
  C988     1.0000 0.88213  0.67505  0.79534  Biso   1.000  C
  C989     1.0000 0.73979  0.69699  0.89380  Biso   1.000  C
  C990     1.0000 0.78743  0.67505  0.89003  Biso   1.000  C
  C991     1.0000 0.67519  0.76159  0.68310  Biso   1.000  C
  C992     1.0000 0.65325  0.80923  0.66116  Biso   1.000  C
  C993     1.0000 0.67519  0.90769  0.74769  Biso   1.000  C
  C994     1.0000 0.65325  0.90392  0.79534  Biso   1.000  C
  C995     1.0000 0.73979  0.69699  0.68310  Biso   1.000  C
  C996     1.0000 0.78743  0.67505  0.66116  Biso   1.000  C
  C997     1.0000 0.88589  0.69699  0.68310  Biso   1.000  C
  C998     1.0000 0.88213  0.67505  0.66116  Biso   1.000  C
  C999     1.0000 0.67519  0.76159  0.89380  Biso   1.000  C
  C1000    1.0000 0.65325  0.80923  0.89003  Biso   1.000  C
  C1001    1.0000 0.73979  0.90769  0.68310  Biso   1.000  C
  C1002    1.0000 0.78743  0.90392  0.66116  Biso   1.000  C
  C1003    1.0000 0.67519  0.69699  0.89380  Biso   1.000  C
  C1004    1.0000 0.65325  0.67505  0.89003  Biso   1.000  C
  C1005    1.0000 0.67519  0.69699  0.74769  Biso   1.000  C
  C1006    1.0000 0.65325  0.67505  0.79534  Biso   1.000  C
  C1007    1.0000 0.88589  0.76159  0.68310  Biso   1.000  C
  C1008    1.0000 0.88213  0.80923  0.66116  Biso   1.000  C
  O433     1.0000 0.85862  0.64437  0.07129  Biso   1.000  O
  O434     1.0000 0.62258  0.88042  0.94029  Biso   1.000  O
  O435     1.0000 0.06338  0.95419  0.86653  Biso   1.000  O
  O436     1.0000 0.93239  0.08518  0.63048  Biso   1.000  O
  O437     1.0000 0.85862  0.08518  0.94029  Biso   1.000  O
  O438     1.0000 0.62258  0.95419  0.07129  Biso   1.000  O
  O439     1.0000 0.06338  0.88042  0.63048  Biso   1.000  O
  O440     1.0000 0.93239  0.64437  0.86653  Biso   1.000  O
  O441     1.0000 0.85862  0.95419  0.63048  Biso   1.000  O
  O442     1.0000 0.62258  0.08518  0.86653  Biso   1.000  O
  O443     1.0000 0.06338  0.64437  0.94029  Biso   1.000  O
  O444     1.0000 0.93239  0.88042  0.07129  Biso   1.000  O
  O445     1.0000 0.11591  0.90166  0.68301  Biso   1.000  O
  O446     1.0000 0.87986  0.13771  0.81400  Biso   1.000  O
  O447     1.0000 0.80610  0.69690  0.88777  Biso   1.000  O
  O448     1.0000 0.67510  0.82790  0.12382  Biso   1.000  O
  O449     1.0000 0.67510  0.90166  0.81400  Biso   1.000  O
  O450     1.0000 0.80610  0.13771  0.68301  Biso   1.000  O
  O451     1.0000 0.87986  0.69690  0.12382  Biso   1.000  O
  O452     1.0000 0.11591  0.82790  0.88777  Biso   1.000  O
  O453     1.0000 0.80610  0.90166  0.12382  Biso   1.000  O
  O454     1.0000 0.67510  0.13771  0.88777  Biso   1.000  O
  O455     1.0000 0.11591  0.69690  0.81400  Biso   1.000  O
  O456     1.0000 0.87986  0.82790  0.68301  Biso   1.000  O
  O457     1.0000 0.87986  0.13771  0.68301  Biso   1.000  O
  O458     1.0000 0.11591  0.90166  0.81400  Biso   1.000  O
  O459     1.0000 0.67510  0.82790  0.88777  Biso   1.000  O
  O460     1.0000 0.80610  0.69690  0.12382  Biso   1.000  O
  O461     1.0000 0.87986  0.69690  0.81400  Biso   1.000  O
  O462     1.0000 0.11591  0.82790  0.68301  Biso   1.000  O
  O463     1.0000 0.67510  0.90166  0.12382  Biso   1.000  O
  O464     1.0000 0.80610  0.13771  0.88777  Biso   1.000  O
  O465     1.0000 0.87986  0.82790  0.12382  Biso   1.000  O
  O466     1.0000 0.11591  0.69690  0.88777  Biso   1.000  O
  O467     1.0000 0.67510  0.13771  0.81400  Biso   1.000  O
  O468     1.0000 0.80610  0.90166  0.68301  Biso   1.000  O
  O469     1.0000 0.62258  0.88042  0.07129  Biso   1.000  O
  O470     1.0000 0.85862  0.64437  0.94029  Biso   1.000  O
  O471     1.0000 0.93239  0.08518  0.86653  Biso   1.000  O
  O472     1.0000 0.06338  0.95419  0.63048  Biso   1.000  O
  O473     1.0000 0.06338  0.88042  0.94029  Biso   1.000  O
  O474     1.0000 0.93239  0.64437  0.07129  Biso   1.000  O
  O475     1.0000 0.85862  0.08518  0.63048  Biso   1.000  O
  O476     1.0000 0.62258  0.95419  0.86653  Biso   1.000  O
  O477     1.0000 0.93239  0.88042  0.63048  Biso   1.000  O
  O478     1.0000 0.06338  0.64437  0.86653  Biso   1.000  O
  O479     1.0000 0.62258  0.08518  0.94029  Biso   1.000  O
  O480     1.0000 0.85862  0.95419  0.07129  Biso   1.000  O
