data_image0
_cell_length_a       28.52
_cell_length_b       28.52
_cell_length_c       28.52
_cell_angle_alpha    90
_cell_angle_beta     90
_cell_angle_gamma    90

_symmetry_space_group_name_H-M    "P 1"
_symmetry_int_tables_number       1

loop_
  _symmetry_equiv_pos_as_xyz
  'x, y, z'

loop_
  _atom_site_label
  _atom_site_occupancy
  _atom_site_fract_x
  _atom_site_fract_y
  _atom_site_fract_z
  _atom_site_thermal_displace_type
  _atom_site_B_iso_or_equiv
  _atom_site_type_symbol
  C1       1.0000 0.24493  0.00000  0.24493  Biso   1.000  C
  C2       1.0000 0.75507  0.00000  0.24493  Biso   1.000  C
  C3       1.0000 0.75507  0.00000  0.75507  Biso   1.000  C
  C4       1.0000 0.24493  0.00000  0.75507  Biso   1.000  C
  C5       1.0000 0.24493  0.24493  0.00000  Biso   1.000  C
  C6       1.0000 0.24493  0.75507  0.00000  Biso   1.000  C
  C7       1.0000 0.75507  0.75507  0.00000  Biso   1.000  C
  C8       1.0000 0.75507  0.24493  0.00000  Biso   1.000  C
  C9       1.0000 0.00000  0.24493  0.24493  Biso   1.000  C
  C10      1.0000 0.00000  0.24493  0.75507  Biso   1.000  C
  C11      1.0000 0.00000  0.75507  0.75507  Biso   1.000  C
  C12      1.0000 0.00000  0.75507  0.24493  Biso   1.000  C
  C13      1.0000 0.31525  0.93962  0.31525  Biso   1.000  C
  C14      1.0000 0.68475  0.06038  0.31525  Biso   1.000  C
  C15      1.0000 0.68475  0.93962  0.68475  Biso   1.000  C
  C16      1.0000 0.31525  0.06038  0.68475  Biso   1.000  C
  C17      1.0000 0.31525  0.31525  0.93962  Biso   1.000  C
  C18      1.0000 0.31525  0.68475  0.06038  Biso   1.000  C
  C19      1.0000 0.68475  0.68475  0.93962  Biso   1.000  C
  C20      1.0000 0.68475  0.31525  0.06038  Biso   1.000  C
  C21      1.0000 0.93962  0.31525  0.31525  Biso   1.000  C
  C22      1.0000 0.06038  0.31525  0.68475  Biso   1.000  C
  C23      1.0000 0.93962  0.68475  0.68475  Biso   1.000  C
  C24      1.0000 0.06038  0.68475  0.31525  Biso   1.000  C
  C25      1.0000 0.93962  0.31525  0.68475  Biso   1.000  C
  C26      1.0000 0.06038  0.68475  0.68475  Biso   1.000  C
  C27      1.0000 0.93962  0.68475  0.31525  Biso   1.000  C
  C28      1.0000 0.06038  0.31525  0.31525  Biso   1.000  C
  C29      1.0000 0.31525  0.31525  0.06038  Biso   1.000  C
  C30      1.0000 0.68475  0.31525  0.93962  Biso   1.000  C
  C31      1.0000 0.68475  0.68475  0.06038  Biso   1.000  C
  C32      1.0000 0.31525  0.68475  0.93962  Biso   1.000  C
  C33      1.0000 0.31525  0.93962  0.68475  Biso   1.000  C
  C34      1.0000 0.31525  0.06038  0.31525  Biso   1.000  C
  C35      1.0000 0.68475  0.93962  0.31525  Biso   1.000  C
  C36      1.0000 0.68475  0.06038  0.68475  Biso   1.000  C
  C37      1.0000 0.34905  0.83745  0.22501  Biso   1.000  C
  C38      1.0000 0.28135  0.93458  0.12735  Biso   1.000  C
  C39      1.0000 0.31013  0.07674  0.45598  Biso   1.000  C
  C40      1.0000 0.65095  0.16255  0.22501  Biso   1.000  C
  C41      1.0000 0.71865  0.06542  0.12735  Biso   1.000  C
  C42      1.0000 0.68987  0.92326  0.45598  Biso   1.000  C
  C43      1.0000 0.65095  0.83745  0.77499  Biso   1.000  C
  C44      1.0000 0.71865  0.93458  0.87265  Biso   1.000  C
  C45      1.0000 0.68987  0.07674  0.54402  Biso   1.000  C
  C46      1.0000 0.34905  0.16255  0.77499  Biso   1.000  C
  C47      1.0000 0.28135  0.06542  0.87265  Biso   1.000  C
  C48      1.0000 0.31013  0.92326  0.54402  Biso   1.000  C
  C49      1.0000 0.22501  0.34905  0.83745  Biso   1.000  C
  C50      1.0000 0.12735  0.28135  0.93458  Biso   1.000  C
  C51      1.0000 0.45598  0.31013  0.07674  Biso   1.000  C
  C52      1.0000 0.22501  0.65095  0.16255  Biso   1.000  C
  C53      1.0000 0.12735  0.71865  0.06542  Biso   1.000  C
  C54      1.0000 0.45598  0.68987  0.92326  Biso   1.000  C
  C55      1.0000 0.77499  0.65095  0.83745  Biso   1.000  C
  C56      1.0000 0.87265  0.71865  0.93458  Biso   1.000  C
  C57      1.0000 0.54402  0.68987  0.07674  Biso   1.000  C
  C58      1.0000 0.77499  0.34905  0.16255  Biso   1.000  C
  C59      1.0000 0.87265  0.28135  0.06542  Biso   1.000  C
  C60      1.0000 0.54402  0.31013  0.92326  Biso   1.000  C
  C61      1.0000 0.83745  0.22501  0.34905  Biso   1.000  C
  C62      1.0000 0.93458  0.12735  0.28135  Biso   1.000  C
  C63      1.0000 0.07674  0.45598  0.31013  Biso   1.000  C
  C64      1.0000 0.16255  0.22501  0.65095  Biso   1.000  C
  C65      1.0000 0.06542  0.12735  0.71865  Biso   1.000  C
  C66      1.0000 0.92326  0.45598  0.68987  Biso   1.000  C
  C67      1.0000 0.83745  0.77499  0.65095  Biso   1.000  C
  C68      1.0000 0.93458  0.87265  0.71865  Biso   1.000  C
  C69      1.0000 0.07674  0.54402  0.68987  Biso   1.000  C
  C70      1.0000 0.16255  0.77499  0.34905  Biso   1.000  C
  C71      1.0000 0.06542  0.87265  0.28135  Biso   1.000  C
  C72      1.0000 0.92326  0.54402  0.31013  Biso   1.000  C
  C73      1.0000 0.83745  0.34905  0.77499  Biso   1.000  C
  C74      1.0000 0.93458  0.28135  0.87265  Biso   1.000  C
  C75      1.0000 0.07674  0.31013  0.54402  Biso   1.000  C
  C76      1.0000 0.16255  0.65095  0.77499  Biso   1.000  C
  C77      1.0000 0.06542  0.71865  0.87265  Biso   1.000  C
  C78      1.0000 0.92326  0.68987  0.54402  Biso   1.000  C
  C79      1.0000 0.83745  0.65095  0.22501  Biso   1.000  C
  C80      1.0000 0.93458  0.71865  0.12735  Biso   1.000  C
  C81      1.0000 0.07674  0.68987  0.45598  Biso   1.000  C
  C82      1.0000 0.16255  0.34905  0.22501  Biso   1.000  C
  C83      1.0000 0.06542  0.28135  0.12735  Biso   1.000  C
  C84      1.0000 0.92326  0.31013  0.45598  Biso   1.000  C
  C85      1.0000 0.34905  0.22501  0.16255  Biso   1.000  C
  C86      1.0000 0.28135  0.12735  0.06542  Biso   1.000  C
  C87      1.0000 0.31013  0.45598  0.92326  Biso   1.000  C
  C88      1.0000 0.65095  0.22501  0.83745  Biso   1.000  C
  C89      1.0000 0.71865  0.12735  0.93458  Biso   1.000  C
  C90      1.0000 0.68987  0.45598  0.07674  Biso   1.000  C
  C91      1.0000 0.65095  0.77499  0.16255  Biso   1.000  C
  C92      1.0000 0.71865  0.87265  0.06542  Biso   1.000  C
  C93      1.0000 0.68987  0.54402  0.92326  Biso   1.000  C
  C94      1.0000 0.34905  0.77499  0.83745  Biso   1.000  C
  C95      1.0000 0.28135  0.87265  0.93458  Biso   1.000  C
  C96      1.0000 0.31013  0.54402  0.07674  Biso   1.000  C
  C97      1.0000 0.22501  0.83745  0.65095  Biso   1.000  C
  C98      1.0000 0.12735  0.93458  0.71865  Biso   1.000  C
  C99      1.0000 0.45598  0.07674  0.68987  Biso   1.000  C
  C100     1.0000 0.22501  0.16255  0.34905  Biso   1.000  C
  C101     1.0000 0.12735  0.06542  0.28135  Biso   1.000  C
  C102     1.0000 0.45598  0.92326  0.31013  Biso   1.000  C
  C103     1.0000 0.77499  0.83745  0.34905  Biso   1.000  C
  C104     1.0000 0.87265  0.93458  0.28135  Biso   1.000  C
  C105     1.0000 0.54402  0.07674  0.31013  Biso   1.000  C
  C106     1.0000 0.77499  0.16255  0.65095  Biso   1.000  C
  C107     1.0000 0.87265  0.06542  0.71865  Biso   1.000  C
  C108     1.0000 0.54402  0.92326  0.68987  Biso   1.000  C
  C109     1.0000 0.65095  0.16255  0.77499  Biso   1.000  C
  C110     1.0000 0.71865  0.06542  0.87265  Biso   1.000  C
  C111     1.0000 0.68987  0.92326  0.54402  Biso   1.000  C
  C112     1.0000 0.34905  0.83745  0.77499  Biso   1.000  C
  C113     1.0000 0.28135  0.93458  0.87265  Biso   1.000  C
  C114     1.0000 0.31013  0.07674  0.54402  Biso   1.000  C
  C115     1.0000 0.34905  0.16255  0.22501  Biso   1.000  C
  C116     1.0000 0.28135  0.06542  0.12735  Biso   1.000  C
  C117     1.0000 0.31013  0.92326  0.45598  Biso   1.000  C
  C118     1.0000 0.65095  0.83745  0.22501  Biso   1.000  C
  C119     1.0000 0.71865  0.93458  0.12735  Biso   1.000  C
  C120     1.0000 0.68987  0.07674  0.45598  Biso   1.000  C
  C121     1.0000 0.77499  0.65095  0.16255  Biso   1.000  C
  C122     1.0000 0.87265  0.71865  0.06542  Biso   1.000  C
  C123     1.0000 0.54402  0.68987  0.92326  Biso   1.000  C
  C124     1.0000 0.77499  0.34905  0.83745  Biso   1.000  C
  C125     1.0000 0.87265  0.28135  0.93458  Biso   1.000  C
  C126     1.0000 0.54402  0.31013  0.07674  Biso   1.000  C
  C127     1.0000 0.22501  0.34905  0.16255  Biso   1.000  C
  C128     1.0000 0.12735  0.28135  0.06542  Biso   1.000  C
  C129     1.0000 0.45598  0.31013  0.92326  Biso   1.000  C
  C130     1.0000 0.22501  0.65095  0.83745  Biso   1.000  C
  C131     1.0000 0.12735  0.71865  0.93458  Biso   1.000  C
  C132     1.0000 0.45598  0.68987  0.07674  Biso   1.000  C
  C133     1.0000 0.16255  0.77499  0.65095  Biso   1.000  C
  C134     1.0000 0.06542  0.87265  0.71865  Biso   1.000  C
  C135     1.0000 0.92326  0.54402  0.68987  Biso   1.000  C
  C136     1.0000 0.83745  0.77499  0.34905  Biso   1.000  C
  C137     1.0000 0.93458  0.87265  0.28135  Biso   1.000  C
  C138     1.0000 0.07674  0.54402  0.31013  Biso   1.000  C
  C139     1.0000 0.16255  0.22501  0.34905  Biso   1.000  C
  C140     1.0000 0.06542  0.12735  0.28135  Biso   1.000  C
  C141     1.0000 0.92326  0.45598  0.31013  Biso   1.000  C
  C142     1.0000 0.83745  0.22501  0.65095  Biso   1.000  C
  C143     1.0000 0.93458  0.12735  0.71865  Biso   1.000  C
  C144     1.0000 0.07674  0.45598  0.68987  Biso   1.000  C
  C145     1.0000 0.16255  0.65095  0.22501  Biso   1.000  C
  C146     1.0000 0.06542  0.71865  0.12735  Biso   1.000  C
  C147     1.0000 0.92326  0.68987  0.45598  Biso   1.000  C
  C148     1.0000 0.83745  0.34905  0.22501  Biso   1.000  C
  C149     1.0000 0.93458  0.28135  0.12735  Biso   1.000  C
  C150     1.0000 0.07674  0.31013  0.45598  Biso   1.000  C
  C151     1.0000 0.16255  0.34905  0.77499  Biso   1.000  C
  C152     1.0000 0.06542  0.28135  0.87265  Biso   1.000  C
  C153     1.0000 0.92326  0.31013  0.54402  Biso   1.000  C
  C154     1.0000 0.83745  0.65095  0.77499  Biso   1.000  C
  C155     1.0000 0.93458  0.71865  0.87265  Biso   1.000  C
  C156     1.0000 0.07674  0.68987  0.54402  Biso   1.000  C
  C157     1.0000 0.65095  0.77499  0.83745  Biso   1.000  C
  C158     1.0000 0.71865  0.87265  0.93458  Biso   1.000  C
  C159     1.0000 0.68987  0.54402  0.07674  Biso   1.000  C
  C160     1.0000 0.34905  0.77499  0.16255  Biso   1.000  C
  C161     1.0000 0.28135  0.87265  0.06542  Biso   1.000  C
  C162     1.0000 0.31013  0.54402  0.92326  Biso   1.000  C
  C163     1.0000 0.34905  0.22501  0.83745  Biso   1.000  C
  C164     1.0000 0.28135  0.12735  0.93458  Biso   1.000  C
  C165     1.0000 0.31013  0.45598  0.07674  Biso   1.000  C
  C166     1.0000 0.65095  0.22501  0.16255  Biso   1.000  C
  C167     1.0000 0.71865  0.12735  0.06542  Biso   1.000  C
  C168     1.0000 0.68987  0.45598  0.92326  Biso   1.000  C
  C169     1.0000 0.77499  0.16255  0.34905  Biso   1.000  C
  C170     1.0000 0.87265  0.06542  0.28135  Biso   1.000  C
  C171     1.0000 0.54402  0.92326  0.31013  Biso   1.000  C
  C172     1.0000 0.77499  0.83745  0.65095  Biso   1.000  C
  C173     1.0000 0.87265  0.93458  0.71865  Biso   1.000  C
  C174     1.0000 0.54402  0.07674  0.68987  Biso   1.000  C
  C175     1.0000 0.22501  0.16255  0.65095  Biso   1.000  C
  C176     1.0000 0.12735  0.06542  0.71865  Biso   1.000  C
  C177     1.0000 0.45598  0.92326  0.68987  Biso   1.000  C
  C178     1.0000 0.22501  0.83745  0.34905  Biso   1.000  C
  C179     1.0000 0.12735  0.93458  0.28135  Biso   1.000  C
  C180     1.0000 0.45598  0.07674  0.31013  Biso   1.000  C
  C181     1.0000 0.33306  0.84516  0.18943  Biso   1.000  C
  C182     1.0000 0.30378  0.92230  0.21854  Biso   1.000  C
  C183     1.0000 0.31348  0.88913  0.18039  Biso   1.000  C
  C184     1.0000 0.29586  0.89854  0.13579  Biso   1.000  C
  C185     1.0000 0.31018  0.04217  0.47563  Biso   1.000  C
  C186     1.0000 0.66694  0.15484  0.18943  Biso   1.000  C
  C187     1.0000 0.69622  0.07770  0.21854  Biso   1.000  C
  C188     1.0000 0.68652  0.11087  0.18039  Biso   1.000  C
  C189     1.0000 0.70414  0.10146  0.13579  Biso   1.000  C
  C190     1.0000 0.68982  0.95783  0.47563  Biso   1.000  C
  C191     1.0000 0.66694  0.84516  0.81057  Biso   1.000  C
  C192     1.0000 0.69622  0.92230  0.78146  Biso   1.000  C
  C193     1.0000 0.68652  0.88913  0.81961  Biso   1.000  C
  C194     1.0000 0.70414  0.89854  0.86421  Biso   1.000  C
  C195     1.0000 0.68982  0.04217  0.52437  Biso   1.000  C
  C196     1.0000 0.33306  0.15484  0.81057  Biso   1.000  C
  C197     1.0000 0.30378  0.07770  0.78146  Biso   1.000  C
  C198     1.0000 0.31348  0.11087  0.81961  Biso   1.000  C
  C199     1.0000 0.29586  0.10146  0.86421  Biso   1.000  C
  C200     1.0000 0.31018  0.95783  0.52437  Biso   1.000  C
  C201     1.0000 0.18943  0.33306  0.84516  Biso   1.000  C
  C202     1.0000 0.21854  0.30378  0.92230  Biso   1.000  C
  C203     1.0000 0.18039  0.31348  0.88913  Biso   1.000  C
  C204     1.0000 0.13579  0.29586  0.89854  Biso   1.000  C
  C205     1.0000 0.47563  0.31018  0.04217  Biso   1.000  C
  C206     1.0000 0.18943  0.66694  0.15484  Biso   1.000  C
  C207     1.0000 0.21854  0.69622  0.07770  Biso   1.000  C
  C208     1.0000 0.18039  0.68652  0.11087  Biso   1.000  C
  C209     1.0000 0.13579  0.70414  0.10146  Biso   1.000  C
  C210     1.0000 0.47563  0.68982  0.95783  Biso   1.000  C
  C211     1.0000 0.81057  0.66694  0.84516  Biso   1.000  C
  C212     1.0000 0.78146  0.69622  0.92230  Biso   1.000  C
  C213     1.0000 0.81961  0.68652  0.88913  Biso   1.000  C
  C214     1.0000 0.86421  0.70414  0.89854  Biso   1.000  C
  C215     1.0000 0.52437  0.68982  0.04217  Biso   1.000  C
  C216     1.0000 0.81057  0.33306  0.15484  Biso   1.000  C
  C217     1.0000 0.78146  0.30378  0.07770  Biso   1.000  C
  C218     1.0000 0.81961  0.31348  0.11087  Biso   1.000  C
  C219     1.0000 0.86421  0.29586  0.10146  Biso   1.000  C
  C220     1.0000 0.52437  0.31018  0.95783  Biso   1.000  C
  C221     1.0000 0.84516  0.18943  0.33306  Biso   1.000  C
  C222     1.0000 0.92230  0.21854  0.30378  Biso   1.000  C
  C223     1.0000 0.88913  0.18039  0.31348  Biso   1.000  C
  C224     1.0000 0.89854  0.13579  0.29586  Biso   1.000  C
  C225     1.0000 0.04217  0.47563  0.31018  Biso   1.000  C
  C226     1.0000 0.15484  0.18943  0.66694  Biso   1.000  C
  C227     1.0000 0.07770  0.21854  0.69622  Biso   1.000  C
  C228     1.0000 0.11087  0.18039  0.68652  Biso   1.000  C
  C229     1.0000 0.10146  0.13579  0.70414  Biso   1.000  C
  C230     1.0000 0.95783  0.47563  0.68982  Biso   1.000  C
  C231     1.0000 0.84516  0.81057  0.66694  Biso   1.000  C
  C232     1.0000 0.92230  0.78146  0.69622  Biso   1.000  C
  C233     1.0000 0.88913  0.81961  0.68652  Biso   1.000  C
  C234     1.0000 0.89854  0.86421  0.70414  Biso   1.000  C
  C235     1.0000 0.04217  0.52437  0.68982  Biso   1.000  C
  C236     1.0000 0.15484  0.81057  0.33306  Biso   1.000  C
  C237     1.0000 0.07770  0.78146  0.30378  Biso   1.000  C
  C238     1.0000 0.11087  0.81961  0.31348  Biso   1.000  C
  C239     1.0000 0.10146  0.86421  0.29586  Biso   1.000  C
  C240     1.0000 0.95783  0.52437  0.31018  Biso   1.000  C
  C241     1.0000 0.84516  0.33306  0.81057  Biso   1.000  C
  C242     1.0000 0.92230  0.30378  0.78146  Biso   1.000  C
  C243     1.0000 0.88913  0.31348  0.81961  Biso   1.000  C
  C244     1.0000 0.89854  0.29586  0.86421  Biso   1.000  C
  C245     1.0000 0.04217  0.31018  0.52437  Biso   1.000  C
  C246     1.0000 0.15484  0.66694  0.81057  Biso   1.000  C
  C247     1.0000 0.07770  0.69622  0.78146  Biso   1.000  C
  C248     1.0000 0.11087  0.68652  0.81961  Biso   1.000  C
  C249     1.0000 0.10146  0.70414  0.86421  Biso   1.000  C
  C250     1.0000 0.95783  0.68982  0.52437  Biso   1.000  C
  C251     1.0000 0.84516  0.66694  0.18943  Biso   1.000  C
  C252     1.0000 0.92230  0.69622  0.21854  Biso   1.000  C
  C253     1.0000 0.88913  0.68652  0.18039  Biso   1.000  C
  C254     1.0000 0.89854  0.70414  0.13579  Biso   1.000  C
  C255     1.0000 0.04217  0.68982  0.47563  Biso   1.000  C
  C256     1.0000 0.15484  0.33306  0.18943  Biso   1.000  C
  C257     1.0000 0.07770  0.30378  0.21854  Biso   1.000  C
  C258     1.0000 0.11087  0.31348  0.18039  Biso   1.000  C
  C259     1.0000 0.10146  0.29586  0.13579  Biso   1.000  C
  C260     1.0000 0.95783  0.31018  0.47563  Biso   1.000  C
  C261     1.0000 0.33306  0.18943  0.15484  Biso   1.000  C
  C262     1.0000 0.30378  0.21854  0.07770  Biso   1.000  C
  C263     1.0000 0.31348  0.18039  0.11087  Biso   1.000  C
  C264     1.0000 0.29586  0.13579  0.10146  Biso   1.000  C
  C265     1.0000 0.31018  0.47563  0.95783  Biso   1.000  C
  C266     1.0000 0.66694  0.18943  0.84516  Biso   1.000  C
  C267     1.0000 0.69622  0.21854  0.92230  Biso   1.000  C
  C268     1.0000 0.68652  0.18039  0.88913  Biso   1.000  C
  C269     1.0000 0.70414  0.13579  0.89854  Biso   1.000  C
  C270     1.0000 0.68982  0.47563  0.04217  Biso   1.000  C
  C271     1.0000 0.66694  0.81057  0.15484  Biso   1.000  C
  C272     1.0000 0.69622  0.78146  0.07770  Biso   1.000  C
  C273     1.0000 0.68652  0.81961  0.11087  Biso   1.000  C
  C274     1.0000 0.70414  0.86421  0.10146  Biso   1.000  C
  C275     1.0000 0.68982  0.52437  0.95783  Biso   1.000  C
  C276     1.0000 0.33306  0.81057  0.84516  Biso   1.000  C
  C277     1.0000 0.30378  0.78146  0.92230  Biso   1.000  C
  C278     1.0000 0.31348  0.81961  0.88913  Biso   1.000  C
  C279     1.0000 0.29586  0.86421  0.89854  Biso   1.000  C
  C280     1.0000 0.31018  0.52437  0.04217  Biso   1.000  C
  C281     1.0000 0.18943  0.84516  0.66694  Biso   1.000  C
  C282     1.0000 0.21854  0.92230  0.69622  Biso   1.000  C
  C283     1.0000 0.18039  0.88913  0.68652  Biso   1.000  C
  C284     1.0000 0.13579  0.89854  0.70414  Biso   1.000  C
  C285     1.0000 0.47563  0.04217  0.68982  Biso   1.000  C
  C286     1.0000 0.18943  0.15484  0.33306  Biso   1.000  C
  C287     1.0000 0.21854  0.07770  0.30378  Biso   1.000  C
  C288     1.0000 0.18039  0.11087  0.31348  Biso   1.000  C
  C289     1.0000 0.13579  0.10146  0.29586  Biso   1.000  C
  C290     1.0000 0.47563  0.95783  0.31018  Biso   1.000  C
  C291     1.0000 0.81057  0.84516  0.33306  Biso   1.000  C
  C292     1.0000 0.78146  0.92230  0.30378  Biso   1.000  C
  C293     1.0000 0.81961  0.88913  0.31348  Biso   1.000  C
  C294     1.0000 0.86421  0.89854  0.29586  Biso   1.000  C
  C295     1.0000 0.52437  0.04217  0.31018  Biso   1.000  C
  C296     1.0000 0.81057  0.15484  0.66694  Biso   1.000  C
  C297     1.0000 0.78146  0.07770  0.69622  Biso   1.000  C
  C298     1.0000 0.81961  0.11087  0.68652  Biso   1.000  C
  C299     1.0000 0.86421  0.10146  0.70414  Biso   1.000  C
  C300     1.0000 0.52437  0.95783  0.68982  Biso   1.000  C
  C301     1.0000 0.66694  0.15484  0.81057  Biso   1.000  C
  C302     1.0000 0.69622  0.07770  0.78146  Biso   1.000  C
  C303     1.0000 0.68652  0.11087  0.81961  Biso   1.000  C
  C304     1.0000 0.70414  0.10146  0.86421  Biso   1.000  C
  C305     1.0000 0.68982  0.95783  0.52437  Biso   1.000  C
  C306     1.0000 0.33306  0.84516  0.81057  Biso   1.000  C
  C307     1.0000 0.30378  0.92230  0.78146  Biso   1.000  C
  C308     1.0000 0.31348  0.88913  0.81961  Biso   1.000  C
  C309     1.0000 0.29586  0.89854  0.86421  Biso   1.000  C
  C310     1.0000 0.31018  0.04217  0.52437  Biso   1.000  C
  C311     1.0000 0.33306  0.15484  0.18943  Biso   1.000  C
  C312     1.0000 0.30378  0.07770  0.21854  Biso   1.000  C
  C313     1.0000 0.31348  0.11087  0.18039  Biso   1.000  C
  C314     1.0000 0.29586  0.10146  0.13579  Biso   1.000  C
  C315     1.0000 0.31018  0.95783  0.47563  Biso   1.000  C
  C316     1.0000 0.66694  0.84516  0.18943  Biso   1.000  C
  C317     1.0000 0.69622  0.92230  0.21854  Biso   1.000  C
  C318     1.0000 0.68652  0.88913  0.18039  Biso   1.000  C
  C319     1.0000 0.70414  0.89854  0.13579  Biso   1.000  C
  C320     1.0000 0.68982  0.04217  0.47563  Biso   1.000  C
  C321     1.0000 0.81057  0.66694  0.15484  Biso   1.000  C
  C322     1.0000 0.78146  0.69622  0.07770  Biso   1.000  C
  C323     1.0000 0.81961  0.68652  0.11087  Biso   1.000  C
  C324     1.0000 0.86421  0.70414  0.10146  Biso   1.000  C
  C325     1.0000 0.52437  0.68982  0.95783  Biso   1.000  C
  C326     1.0000 0.81057  0.33306  0.84516  Biso   1.000  C
  C327     1.0000 0.78146  0.30378  0.92230  Biso   1.000  C
  C328     1.0000 0.81961  0.31348  0.88913  Biso   1.000  C
  C329     1.0000 0.86421  0.29586  0.89854  Biso   1.000  C
  C330     1.0000 0.52437  0.31018  0.04217  Biso   1.000  C
  C331     1.0000 0.18943  0.33306  0.15484  Biso   1.000  C
  C332     1.0000 0.21854  0.30378  0.07770  Biso   1.000  C
  C333     1.0000 0.18039  0.31348  0.11087  Biso   1.000  C
  C334     1.0000 0.13579  0.29586  0.10146  Biso   1.000  C
  C335     1.0000 0.47563  0.31018  0.95783  Biso   1.000  C
  C336     1.0000 0.18943  0.66694  0.84516  Biso   1.000  C
  C337     1.0000 0.21854  0.69622  0.92230  Biso   1.000  C
  C338     1.0000 0.18039  0.68652  0.88913  Biso   1.000  C
  C339     1.0000 0.13579  0.70414  0.89854  Biso   1.000  C
  C340     1.0000 0.47563  0.68982  0.04217  Biso   1.000  C
  C341     1.0000 0.15484  0.81057  0.66694  Biso   1.000  C
  C342     1.0000 0.07770  0.78146  0.69622  Biso   1.000  C
  C343     1.0000 0.11087  0.81961  0.68652  Biso   1.000  C
  C344     1.0000 0.10146  0.86421  0.70414  Biso   1.000  C
  C345     1.0000 0.95783  0.52437  0.68982  Biso   1.000  C
  C346     1.0000 0.84516  0.81057  0.33306  Biso   1.000  C
  C347     1.0000 0.92230  0.78146  0.30378  Biso   1.000  C
  C348     1.0000 0.88913  0.81961  0.31348  Biso   1.000  C
  C349     1.0000 0.89854  0.86421  0.29586  Biso   1.000  C
  C350     1.0000 0.04217  0.52437  0.31018  Biso   1.000  C
  C351     1.0000 0.15484  0.18943  0.33306  Biso   1.000  C
  C352     1.0000 0.07770  0.21854  0.30378  Biso   1.000  C
  C353     1.0000 0.11087  0.18039  0.31348  Biso   1.000  C
  C354     1.0000 0.10146  0.13579  0.29586  Biso   1.000  C
  C355     1.0000 0.95783  0.47563  0.31018  Biso   1.000  C
  C356     1.0000 0.84516  0.18943  0.66694  Biso   1.000  C
  C357     1.0000 0.92230  0.21854  0.69622  Biso   1.000  C
  C358     1.0000 0.88913  0.18039  0.68652  Biso   1.000  C
  C359     1.0000 0.89854  0.13579  0.70414  Biso   1.000  C
  C360     1.0000 0.04217  0.47563  0.68982  Biso   1.000  C
  C361     1.0000 0.15484  0.66694  0.18943  Biso   1.000  C
  C362     1.0000 0.07770  0.69622  0.21854  Biso   1.000  C
  C363     1.0000 0.11087  0.68652  0.18039  Biso   1.000  C
  C364     1.0000 0.10146  0.70414  0.13579  Biso   1.000  C
  C365     1.0000 0.95783  0.68982  0.47563  Biso   1.000  C
  C366     1.0000 0.84516  0.33306  0.18943  Biso   1.000  C
  C367     1.0000 0.92230  0.30378  0.21854  Biso   1.000  C
  C368     1.0000 0.88913  0.31348  0.18039  Biso   1.000  C
  C369     1.0000 0.89854  0.29586  0.13579  Biso   1.000  C
  C370     1.0000 0.04217  0.31018  0.47563  Biso   1.000  C
  C371     1.0000 0.15484  0.33306  0.81057  Biso   1.000  C
  C372     1.0000 0.07770  0.30378  0.78146  Biso   1.000  C
  C373     1.0000 0.11087  0.31348  0.81961  Biso   1.000  C
  C374     1.0000 0.10146  0.29586  0.86421  Biso   1.000  C
  C375     1.0000 0.95783  0.31018  0.52437  Biso   1.000  C
  C376     1.0000 0.84516  0.66694  0.81057  Biso   1.000  C
  C377     1.0000 0.92230  0.69622  0.78146  Biso   1.000  C
  C378     1.0000 0.88913  0.68652  0.81961  Biso   1.000  C
  C379     1.0000 0.89854  0.70414  0.86421  Biso   1.000  C
  C380     1.0000 0.04217  0.68982  0.52437  Biso   1.000  C
  C381     1.0000 0.66694  0.81057  0.84516  Biso   1.000  C
  C382     1.0000 0.69622  0.78146  0.92230  Biso   1.000  C
  C383     1.0000 0.68652  0.81961  0.88913  Biso   1.000  C
  C384     1.0000 0.70414  0.86421  0.89854  Biso   1.000  C
  C385     1.0000 0.68982  0.52437  0.04217  Biso   1.000  C
  C386     1.0000 0.33306  0.81057  0.15484  Biso   1.000  C
  C387     1.0000 0.30378  0.78146  0.07770  Biso   1.000  C
  C388     1.0000 0.31348  0.81961  0.11087  Biso   1.000  C
  C389     1.0000 0.29586  0.86421  0.10146  Biso   1.000  C
  C390     1.0000 0.31018  0.52437  0.95783  Biso   1.000  C
  C391     1.0000 0.33306  0.18943  0.84516  Biso   1.000  C
  C392     1.0000 0.30378  0.21854  0.92230  Biso   1.000  C
  C393     1.0000 0.31348  0.18039  0.88913  Biso   1.000  C
  C394     1.0000 0.29586  0.13579  0.89854  Biso   1.000  C
  C395     1.0000 0.31018  0.47563  0.04217  Biso   1.000  C
  C396     1.0000 0.66694  0.18943  0.15484  Biso   1.000  C
  C397     1.0000 0.69622  0.21854  0.07770  Biso   1.000  C
  C398     1.0000 0.68652  0.18039  0.11087  Biso   1.000  C
  C399     1.0000 0.70414  0.13579  0.10146  Biso   1.000  C
  C400     1.0000 0.68982  0.47563  0.95783  Biso   1.000  C
  C401     1.0000 0.81057  0.15484  0.33306  Biso   1.000  C
  C402     1.0000 0.78146  0.07770  0.30378  Biso   1.000  C
  C403     1.0000 0.81961  0.11087  0.31348  Biso   1.000  C
  C404     1.0000 0.86421  0.10146  0.29586  Biso   1.000  C
  C405     1.0000 0.52437  0.95783  0.31018  Biso   1.000  C
  C406     1.0000 0.81057  0.84516  0.66694  Biso   1.000  C
  C407     1.0000 0.78146  0.92230  0.69622  Biso   1.000  C
  C408     1.0000 0.81961  0.88913  0.68652  Biso   1.000  C
  C409     1.0000 0.86421  0.89854  0.70414  Biso   1.000  C
  C410     1.0000 0.52437  0.04217  0.68982  Biso   1.000  C
  C411     1.0000 0.18943  0.15484  0.66694  Biso   1.000  C
  C412     1.0000 0.21854  0.07770  0.69622  Biso   1.000  C
  C413     1.0000 0.18039  0.11087  0.68652  Biso   1.000  C
  C414     1.0000 0.13579  0.10146  0.70414  Biso   1.000  C
  C415     1.0000 0.47563  0.95783  0.68982  Biso   1.000  C
  C416     1.0000 0.18943  0.84516  0.33306  Biso   1.000  C
  C417     1.0000 0.21854  0.92230  0.30378  Biso   1.000  C
  C418     1.0000 0.18039  0.88913  0.31348  Biso   1.000  C
  C419     1.0000 0.13579  0.89854  0.29586  Biso   1.000  C
  C420     1.0000 0.47563  0.04217  0.31018  Biso   1.000  C
  C421     1.0000 0.31094  0.00000  0.39955  Biso   1.000  C
  C422     1.0000 0.31024  0.00000  0.45091  Biso   1.000  C
  C423     1.0000 0.68906  0.00000  0.39955  Biso   1.000  C
  C424     1.0000 0.68976  0.00000  0.45091  Biso   1.000  C
  C425     1.0000 0.68906  0.00000  0.60045  Biso   1.000  C
  C426     1.0000 0.68976  0.00000  0.54909  Biso   1.000  C
  C427     1.0000 0.31094  0.00000  0.60045  Biso   1.000  C
  C428     1.0000 0.31024  0.00000  0.54909  Biso   1.000  C
  C429     1.0000 0.39955  0.31094  0.00000  Biso   1.000  C
  C430     1.0000 0.45091  0.31024  0.00000  Biso   1.000  C
  C431     1.0000 0.39955  0.68906  0.00000  Biso   1.000  C
  C432     1.0000 0.45091  0.68976  0.00000  Biso   1.000  C
  C433     1.0000 0.60045  0.68906  0.00000  Biso   1.000  C
  C434     1.0000 0.54909  0.68976  0.00000  Biso   1.000  C
  C435     1.0000 0.60045  0.31094  0.00000  Biso   1.000  C
  C436     1.0000 0.54909  0.31024  0.00000  Biso   1.000  C
  C437     1.0000 0.00000  0.39955  0.31094  Biso   1.000  C
  C438     1.0000 0.00000  0.45091  0.31024  Biso   1.000  C
  C439     1.0000 0.00000  0.39955  0.68906  Biso   1.000  C
  C440     1.0000 0.00000  0.45091  0.68976  Biso   1.000  C
  C441     1.0000 0.00000  0.60045  0.68906  Biso   1.000  C
  C442     1.0000 0.00000  0.54909  0.68976  Biso   1.000  C
  C443     1.0000 0.00000  0.60045  0.31094  Biso   1.000  C
  C444     1.0000 0.00000  0.54909  0.31024  Biso   1.000  C
  C445     1.0000 0.00000  0.31094  0.60045  Biso   1.000  C
  C446     1.0000 0.00000  0.31024  0.54909  Biso   1.000  C
  C447     1.0000 0.00000  0.68906  0.60045  Biso   1.000  C
  C448     1.0000 0.00000  0.68976  0.54909  Biso   1.000  C
  C449     1.0000 0.00000  0.68906  0.39955  Biso   1.000  C
  C450     1.0000 0.00000  0.68976  0.45091  Biso   1.000  C
  C451     1.0000 0.00000  0.31094  0.39955  Biso   1.000  C
  C452     1.0000 0.00000  0.31024  0.45091  Biso   1.000  C
  C453     1.0000 0.31094  0.39955  0.00000  Biso   1.000  C
  C454     1.0000 0.31024  0.45091  0.00000  Biso   1.000  C
  C455     1.0000 0.68906  0.39955  0.00000  Biso   1.000  C
  C456     1.0000 0.68976  0.45091  0.00000  Biso   1.000  C
  C457     1.0000 0.68906  0.60045  0.00000  Biso   1.000  C
  C458     1.0000 0.68976  0.54909  0.00000  Biso   1.000  C
  C459     1.0000 0.31094  0.60045  0.00000  Biso   1.000  C
  C460     1.0000 0.31024  0.54909  0.00000  Biso   1.000  C
  C461     1.0000 0.39955  0.00000  0.68906  Biso   1.000  C
  C462     1.0000 0.45091  0.00000  0.68976  Biso   1.000  C
  C463     1.0000 0.39955  0.00000  0.31094  Biso   1.000  C
  C464     1.0000 0.45091  0.00000  0.31024  Biso   1.000  C
  C465     1.0000 0.60045  0.00000  0.31094  Biso   1.000  C
  C466     1.0000 0.54909  0.00000  0.31024  Biso   1.000  C
  C467     1.0000 0.60045  0.00000  0.68906  Biso   1.000  C
  C468     1.0000 0.54909  0.00000  0.68976  Biso   1.000  C
  C469     1.0000 0.32137  0.91506  0.25854  Biso   1.000  C
  C470     1.0000 0.27561  0.95507  0.20985  Biso   1.000  C
  C471     1.0000 0.31105  0.95892  0.37743  Biso   1.000  C
  C472     1.0000 0.67863  0.08494  0.25854  Biso   1.000  C
  C473     1.0000 0.72439  0.04493  0.20985  Biso   1.000  C
  C474     1.0000 0.68895  0.04108  0.37743  Biso   1.000  C
  C475     1.0000 0.67863  0.91506  0.74146  Biso   1.000  C
  C476     1.0000 0.72439  0.95507  0.79015  Biso   1.000  C
  C477     1.0000 0.68895  0.95892  0.62257  Biso   1.000  C
  C478     1.0000 0.32137  0.08494  0.74146  Biso   1.000  C
  C479     1.0000 0.27561  0.04493  0.79015  Biso   1.000  C
  C480     1.0000 0.31105  0.04108  0.62257  Biso   1.000  C
  C481     1.0000 0.25854  0.32137  0.91506  Biso   1.000  C
  C482     1.0000 0.20985  0.27561  0.95507  Biso   1.000  C
  C483     1.0000 0.37743  0.31105  0.95892  Biso   1.000  C
  C484     1.0000 0.25854  0.67863  0.08494  Biso   1.000  C
  C485     1.0000 0.20985  0.72439  0.04493  Biso   1.000  C
  C486     1.0000 0.37743  0.68895  0.04108  Biso   1.000  C
  C487     1.0000 0.74146  0.67863  0.91506  Biso   1.000  C
  C488     1.0000 0.79015  0.72439  0.95507  Biso   1.000  C
  C489     1.0000 0.62257  0.68895  0.95892  Biso   1.000  C
  C490     1.0000 0.74146  0.32137  0.08494  Biso   1.000  C
  C491     1.0000 0.79015  0.27561  0.04493  Biso   1.000  C
  C492     1.0000 0.62257  0.31105  0.04108  Biso   1.000  C
  C493     1.0000 0.91506  0.25854  0.32137  Biso   1.000  C
  C494     1.0000 0.95507  0.20985  0.27561  Biso   1.000  C
  C495     1.0000 0.95892  0.37743  0.31105  Biso   1.000  C
  C496     1.0000 0.08494  0.25854  0.67863  Biso   1.000  C
  C497     1.0000 0.04493  0.20985  0.72439  Biso   1.000  C
  C498     1.0000 0.04108  0.37743  0.68895  Biso   1.000  C
  C499     1.0000 0.91506  0.74146  0.67863  Biso   1.000  C
  C500     1.0000 0.95507  0.79015  0.72439  Biso   1.000  C
  C501     1.0000 0.95892  0.62257  0.68895  Biso   1.000  C
  C502     1.0000 0.08494  0.74146  0.32137  Biso   1.000  C
  C503     1.0000 0.04493  0.79015  0.27561  Biso   1.000  C
  C504     1.0000 0.04108  0.62257  0.31105  Biso   1.000  C
  C505     1.0000 0.91506  0.32137  0.74146  Biso   1.000  C
  C506     1.0000 0.95507  0.27561  0.79015  Biso   1.000  C
  C507     1.0000 0.95892  0.31105  0.62257  Biso   1.000  C
  C508     1.0000 0.08494  0.67863  0.74146  Biso   1.000  C
  C509     1.0000 0.04493  0.72439  0.79015  Biso   1.000  C
  C510     1.0000 0.04108  0.68895  0.62257  Biso   1.000  C
  C511     1.0000 0.91506  0.67863  0.25854  Biso   1.000  C
  C512     1.0000 0.95507  0.72439  0.20985  Biso   1.000  C
  C513     1.0000 0.95892  0.68895  0.37743  Biso   1.000  C
  C514     1.0000 0.08494  0.32137  0.25854  Biso   1.000  C
  C515     1.0000 0.04493  0.27561  0.20985  Biso   1.000  C
  C516     1.0000 0.04108  0.31105  0.37743  Biso   1.000  C
  C517     1.0000 0.32137  0.25854  0.08494  Biso   1.000  C
  C518     1.0000 0.27561  0.20985  0.04493  Biso   1.000  C
  C519     1.0000 0.31105  0.37743  0.04108  Biso   1.000  C
  C520     1.0000 0.67863  0.25854  0.91506  Biso   1.000  C
  C521     1.0000 0.72439  0.20985  0.95507  Biso   1.000  C
  C522     1.0000 0.68895  0.37743  0.95892  Biso   1.000  C
  C523     1.0000 0.67863  0.74146  0.08494  Biso   1.000  C
  C524     1.0000 0.72439  0.79015  0.04493  Biso   1.000  C
  C525     1.0000 0.68895  0.62257  0.04108  Biso   1.000  C
  C526     1.0000 0.32137  0.74146  0.91506  Biso   1.000  C
  C527     1.0000 0.27561  0.79015  0.95507  Biso   1.000  C
  C528     1.0000 0.31105  0.62257  0.95892  Biso   1.000  C
  C529     1.0000 0.25854  0.91506  0.67863  Biso   1.000  C
  C530     1.0000 0.20985  0.95507  0.72439  Biso   1.000  C
  C531     1.0000 0.37743  0.95892  0.68895  Biso   1.000  C
  C532     1.0000 0.25854  0.08494  0.32137  Biso   1.000  C
  C533     1.0000 0.20985  0.04493  0.27561  Biso   1.000  C
  C534     1.0000 0.37743  0.04108  0.31105  Biso   1.000  C
  C535     1.0000 0.74146  0.91506  0.32137  Biso   1.000  C
  C536     1.0000 0.79015  0.95507  0.27561  Biso   1.000  C
  C537     1.0000 0.62257  0.95892  0.31105  Biso   1.000  C
  C538     1.0000 0.74146  0.08494  0.67863  Biso   1.000  C
  C539     1.0000 0.79015  0.04493  0.72439  Biso   1.000  C
  C540     1.0000 0.62257  0.04108  0.68895  Biso   1.000  C
  C541     1.0000 0.67863  0.08494  0.74146  Biso   1.000  C
  C542     1.0000 0.72439  0.04493  0.79015  Biso   1.000  C
  C543     1.0000 0.68895  0.04108  0.62257  Biso   1.000  C
  C544     1.0000 0.32137  0.91506  0.74146  Biso   1.000  C
  C545     1.0000 0.27561  0.95507  0.79015  Biso   1.000  C
  C546     1.0000 0.31105  0.95892  0.62257  Biso   1.000  C
  C547     1.0000 0.32137  0.08494  0.25854  Biso   1.000  C
  C548     1.0000 0.27561  0.04493  0.20985  Biso   1.000  C
  C549     1.0000 0.31105  0.04108  0.37743  Biso   1.000  C
  C550     1.0000 0.67863  0.91506  0.25854  Biso   1.000  C
  C551     1.0000 0.72439  0.95507  0.20985  Biso   1.000  C
  C552     1.0000 0.68895  0.95892  0.37743  Biso   1.000  C
  C553     1.0000 0.74146  0.67863  0.08494  Biso   1.000  C
  C554     1.0000 0.79015  0.72439  0.04493  Biso   1.000  C
  C555     1.0000 0.62257  0.68895  0.04108  Biso   1.000  C
  C556     1.0000 0.74146  0.32137  0.91506  Biso   1.000  C
  C557     1.0000 0.79015  0.27561  0.95507  Biso   1.000  C
  C558     1.0000 0.62257  0.31105  0.95892  Biso   1.000  C
  C559     1.0000 0.25854  0.32137  0.08494  Biso   1.000  C
  C560     1.0000 0.20985  0.27561  0.04493  Biso   1.000  C
  C561     1.0000 0.37743  0.31105  0.04108  Biso   1.000  C
  C562     1.0000 0.25854  0.67863  0.91506  Biso   1.000  C
  C563     1.0000 0.20985  0.72439  0.95507  Biso   1.000  C
  C564     1.0000 0.37743  0.68895  0.95892  Biso   1.000  C
  C565     1.0000 0.08494  0.74146  0.67863  Biso   1.000  C
  C566     1.0000 0.04493  0.79015  0.72439  Biso   1.000  C
  C567     1.0000 0.04108  0.62257  0.68895  Biso   1.000  C
  C568     1.0000 0.91506  0.74146  0.32137  Biso   1.000  C
  C569     1.0000 0.95507  0.79015  0.27561  Biso   1.000  C
  C570     1.0000 0.95892  0.62257  0.31105  Biso   1.000  C
  C571     1.0000 0.08494  0.25854  0.32137  Biso   1.000  C
  C572     1.0000 0.04493  0.20985  0.27561  Biso   1.000  C
  C573     1.0000 0.04108  0.37743  0.31105  Biso   1.000  C
  C574     1.0000 0.91506  0.25854  0.67863  Biso   1.000  C
  C575     1.0000 0.95507  0.20985  0.72439  Biso   1.000  C
  C576     1.0000 0.95892  0.37743  0.68895  Biso   1.000  C
  C577     1.0000 0.08494  0.67863  0.25854  Biso   1.000  C
  C578     1.0000 0.04493  0.72439  0.20985  Biso   1.000  C
  C579     1.0000 0.04108  0.68895  0.37743  Biso   1.000  C
  C580     1.0000 0.91506  0.32137  0.25854  Biso   1.000  C
  C581     1.0000 0.95507  0.27561  0.20985  Biso   1.000  C
  C582     1.0000 0.95892  0.31105  0.37743  Biso   1.000  C
  C583     1.0000 0.08494  0.32137  0.74146  Biso   1.000  C
  C584     1.0000 0.04493  0.27561  0.79015  Biso   1.000  C
  C585     1.0000 0.04108  0.31105  0.62257  Biso   1.000  C
  C586     1.0000 0.91506  0.67863  0.74146  Biso   1.000  C
  C587     1.0000 0.95507  0.72439  0.79015  Biso   1.000  C
  C588     1.0000 0.95892  0.68895  0.62257  Biso   1.000  C
  C589     1.0000 0.67863  0.74146  0.91506  Biso   1.000  C
  C590     1.0000 0.72439  0.79015  0.95507  Biso   1.000  C
  C591     1.0000 0.68895  0.62257  0.95892  Biso   1.000  C
  C592     1.0000 0.32137  0.74146  0.08494  Biso   1.000  C
  C593     1.0000 0.27561  0.79015  0.04493  Biso   1.000  C
  C594     1.0000 0.31105  0.62257  0.04108  Biso   1.000  C
  C595     1.0000 0.32137  0.25854  0.91506  Biso   1.000  C
  C596     1.0000 0.27561  0.20985  0.95507  Biso   1.000  C
  C597     1.0000 0.31105  0.37743  0.95892  Biso   1.000  C
  C598     1.0000 0.67863  0.25854  0.08494  Biso   1.000  C
  C599     1.0000 0.72439  0.20985  0.04493  Biso   1.000  C
  C600     1.0000 0.68895  0.37743  0.04108  Biso   1.000  C
  C601     1.0000 0.74146  0.08494  0.32137  Biso   1.000  C
  C602     1.0000 0.79015  0.04493  0.27561  Biso   1.000  C
  C603     1.0000 0.62257  0.04108  0.31105  Biso   1.000  C
  C604     1.0000 0.74146  0.91506  0.67863  Biso   1.000  C
  C605     1.0000 0.79015  0.95507  0.72439  Biso   1.000  C
  C606     1.0000 0.62257  0.95892  0.68895  Biso   1.000  C
  C607     1.0000 0.25854  0.08494  0.67863  Biso   1.000  C
  C608     1.0000 0.20985  0.04493  0.72439  Biso   1.000  C
  C609     1.0000 0.37743  0.04108  0.68895  Biso   1.000  C
  C610     1.0000 0.25854  0.91506  0.32137  Biso   1.000  C
  C611     1.0000 0.20985  0.95507  0.27561  Biso   1.000  C
  C612     1.0000 0.37743  0.95892  0.31105  Biso   1.000  C
  C613     1.0000 0.29216  0.00000  0.29216  Biso   1.000  C
  C614     1.0000 0.70784  0.00000  0.29216  Biso   1.000  C
  C615     1.0000 0.70784  0.00000  0.70784  Biso   1.000  C
  C616     1.0000 0.29216  0.00000  0.70784  Biso   1.000  C
  C617     1.0000 0.29216  0.29216  0.00000  Biso   1.000  C
  C618     1.0000 0.29216  0.70784  0.00000  Biso   1.000  C
  C619     1.0000 0.70784  0.70784  0.00000  Biso   1.000  C
  C620     1.0000 0.70784  0.29216  0.00000  Biso   1.000  C
  C621     1.0000 0.00000  0.29216  0.29216  Biso   1.000  C
  C622     1.0000 0.00000  0.29216  0.70784  Biso   1.000  C
  C623     1.0000 0.00000  0.70784  0.70784  Biso   1.000  C
  C624     1.0000 0.00000  0.70784  0.29216  Biso   1.000  C
  O1       1.0000 0.49088  0.84151  0.98177  Biso   1.000  O
  O2       1.0000 0.49140  0.84157  0.02984  Biso   1.000  O
  O3       1.0000 0.50563  0.88885  0.04386  Biso   1.000  O
  O4       1.0000 0.49949  0.91559  0.00548  Biso   1.000  O
  O5       1.0000 0.50491  0.88875  0.96734  Biso   1.000  O
  O6       1.0000 0.49978  0.90317  0.09051  Biso   1.000  O
  O7       1.0000 0.50754  0.95043  0.10351  Biso   1.000  O
  O8       1.0000 0.52450  0.96474  0.14678  Biso   1.000  O
  O9       1.0000 0.52402  0.01296  0.14674  Biso   1.000  O
  O10      1.0000 0.50685  0.02685  0.10342  Biso   1.000  O
  O11      1.0000 0.51086  0.98852  0.07728  Biso   1.000  O
  O12      1.0000 0.49837  0.07392  0.09025  Biso   1.000  O
  O13      1.0000 0.50488  0.08805  0.04342  Biso   1.000  O
  O14      1.0000 0.49083  0.13527  0.02900  Biso   1.000  O
  O15      1.0000 0.49132  0.13522  0.98093  Biso   1.000  O
  O16      1.0000 0.50557  0.08793  0.96690  Biso   1.000  O
  O17      1.0000 0.49945  0.06120  0.00527  Biso   1.000  O
  O18      1.0000 0.49970  0.07363  0.92024  Biso   1.000  O
  O19      1.0000 0.50748  0.02637  0.90724  Biso   1.000  O
  O20      1.0000 0.52442  0.01206  0.86396  Biso   1.000  O
  O21      1.0000 0.52396  0.96385  0.86400  Biso   1.000  O
  O22      1.0000 0.50682  0.94996  0.90733  Biso   1.000  O
  O23      1.0000 0.51083  0.98828  0.93347  Biso   1.000  O
  O24      1.0000 0.49837  0.90287  0.92050  Biso   1.000  O
  O25      1.0000 0.48155  0.81213  0.95965  Biso   1.000  O
  O26      1.0000 0.48253  0.81225  0.05222  Biso   1.000  O
  O27      1.0000 0.49283  0.98844  0.96516  Biso   1.000  O
  O28      1.0000 0.53575  0.94275  0.17558  Biso   1.000  O
  O29      1.0000 0.53484  0.03525  0.17548  Biso   1.000  O
  O30      1.0000 0.48150  0.16466  0.05111  Biso   1.000  O
  O31      1.0000 0.48243  0.16453  0.95855  Biso   1.000  O
  O32      1.0000 0.53478  0.94157  0.83525  Biso   1.000  O
  O33      1.0000 0.49285  0.98835  0.04560  Biso   1.000  O
  O34      1.0000 0.53564  0.03407  0.83515  Biso   1.000  O
  O35      1.0000 0.98488  0.50610  0.15225  Biso   1.000  O
  O36      1.0000 0.03296  0.50562  0.15220  Biso   1.000  O
  O37      1.0000 0.04697  0.49137  0.10491  Biso   1.000  O
  O38      1.0000 0.00860  0.48345  0.07817  Biso   1.000  O
  O39      1.0000 0.97045  0.49206  0.10502  Biso   1.000  O
  O40      1.0000 0.09364  0.48321  0.09060  Biso   1.000  O
  O41      1.0000 0.10664  0.48947  0.04334  Biso   1.000  O
  O42      1.0000 0.14992  0.47252  0.02903  Biso   1.000  O
  O43      1.0000 0.14987  0.47298  0.98081  Biso   1.000  O
  O44      1.0000 0.10655  0.49013  0.96692  Biso   1.000  O
  O45      1.0000 0.08040  0.48612  0.00525  Biso   1.000  O
  O46      1.0000 0.09337  0.48454  0.91984  Biso   1.000  O
  O47      1.0000 0.04653  0.49205  0.90571  Biso   1.000  O
  O48      1.0000 0.03210  0.50607  0.85849  Biso   1.000  O
  O49      1.0000 0.98403  0.50556  0.85854  Biso   1.000  O
  O50      1.0000 0.97002  0.49132  0.90583  Biso   1.000  O
  O51      1.0000 0.00840  0.48342  0.93257  Biso   1.000  O
  O52      1.0000 0.92336  0.48314  0.92014  Biso   1.000  O
  O53      1.0000 0.91036  0.48941  0.96740  Biso   1.000  O
  O54      1.0000 0.86709  0.47245  0.98172  Biso   1.000  O
  O55      1.0000 0.86713  0.47292  0.02993  Biso   1.000  O
  O56      1.0000 0.91045  0.49010  0.04382  Biso   1.000  O
  O57      1.0000 0.93659  0.48608  0.00550  Biso   1.000  O
  O58      1.0000 0.92362  0.48453  0.09090  Biso   1.000  O
  O59      1.0000 0.96277  0.51543  0.18162  Biso   1.000  O
  O60      1.0000 0.05533  0.51451  0.18151  Biso   1.000  O
  O61      1.0000 0.96827  0.50410  0.00532  Biso   1.000  O
  O62      1.0000 0.17872  0.46129  0.05104  Biso   1.000  O
  O63      1.0000 0.17862  0.46216  0.95854  Biso   1.000  O
  O64      1.0000 0.05421  0.51539  0.82910  Biso   1.000  O
  O65      1.0000 0.96165  0.51442  0.82923  Biso   1.000  O
  O66      1.0000 0.83839  0.46209  0.05222  Biso   1.000  O
  O67      1.0000 0.04871  0.50412  0.00540  Biso   1.000  O
  O68      1.0000 0.83829  0.46119  0.95971  Biso   1.000  O
  O69      1.0000 0.86168  0.96394  0.52267  Biso   1.000  O
  O70      1.0000 0.86163  0.01201  0.52317  Biso   1.000  O
  O71      1.0000 0.90885  0.02644  0.50913  Biso   1.000  O
  O72      1.0000 0.93570  0.98830  0.50052  Biso   1.000  O
  O73      1.0000 0.90896  0.94992  0.50844  Biso   1.000  O
  O74      1.0000 0.92297  0.07327  0.50160  Biso   1.000  O
  O75      1.0000 0.97005  0.08644  0.50716  Biso   1.000  O
  O76      1.0000 0.98394  0.12976  0.48998  Biso   1.000  O
  O77      1.0000 0.03215  0.12980  0.48950  Biso   1.000  O
  O78      1.0000 0.04646  0.08654  0.50647  Biso   1.000  O
  O79      1.0000 0.00838  0.06030  0.50314  Biso   1.000  O
  O80      1.0000 0.09373  0.07354  0.50020  Biso   1.000  O
  O81      1.0000 0.10805  0.02688  0.50838  Biso   1.000  O
  O82      1.0000 0.15533  0.01288  0.52260  Biso   1.000  O
  O83      1.0000 0.15538  0.96480  0.52312  Biso   1.000  O
  O84      1.0000 0.10816  0.95037  0.50910  Biso   1.000  O
  O85      1.0000 0.08131  0.98851  0.50049  Biso   1.000  O
  O86      1.0000 0.09403  0.90353  0.50160  Biso   1.000  O
  O87      1.0000 0.04695  0.89035  0.50719  Biso   1.000  O
  O88      1.0000 0.03306  0.84703  0.49003  Biso   1.000  O
  O89      1.0000 0.98484  0.84699  0.48957  Biso   1.000  O
  O90      1.0000 0.97053  0.89026  0.50653  Biso   1.000  O
  O91      1.0000 0.00863  0.91650  0.50317  Biso   1.000  O
  O92      1.0000 0.92328  0.90326  0.50026  Biso   1.000  O
  O93      1.0000 0.83236  0.94156  0.53157  Biso   1.000  O
  O94      1.0000 0.83224  0.03413  0.53250  Biso   1.000  O
  O95      1.0000 0.00847  0.94818  0.52117  Biso   1.000  O
  O96      1.0000 0.96165  0.15850  0.47915  Biso   1.000  O
  O97      1.0000 0.05415  0.15861  0.47826  Biso   1.000  O
  O98      1.0000 0.18466  0.03526  0.53148  Biso   1.000  O
  O99      1.0000 0.18477  0.94269  0.53245  Biso   1.000  O
  O100     1.0000 0.96284  0.81818  0.47834  Biso   1.000  O
  O101     1.0000 0.00855  0.02863  0.52115  Biso   1.000  O
  O102     1.0000 0.05535  0.81828  0.47920  Biso   1.000  O
  O103     1.0000 0.50300  0.37472  0.56182  Biso   1.000  O
  O104     1.0000 0.49989  0.60202  0.56189  Biso   1.000  O
  O105     1.0000 0.56494  0.49376  0.61905  Biso   1.000  O
  O106     1.0000 0.45199  0.48298  0.61900  Biso   1.000  O
  O107     1.0000 0.39484  0.48301  0.56185  Biso   1.000  O
  O108     1.0000 0.62212  0.49376  0.56194  Biso   1.000  O
  O109     1.0000 0.49986  0.54487  0.61903  Biso   1.000  O
  O110     1.0000 0.50302  0.43183  0.61900  Biso   1.000  O
  O111     1.0000 0.50146  0.49538  0.58087  Biso   1.000  O
  O112     1.0000 0.47298  0.52393  0.54090  Biso   1.000  O
  O113     1.0000 0.54401  0.45282  0.54091  Biso   1.000  O
  O114     1.0000 0.50375  0.38839  0.60527  Biso   1.000  O
  O115     1.0000 0.49910  0.58832  0.60533  Biso   1.000  O
  O116     1.0000 0.60839  0.49300  0.60538  Biso   1.000  O
  O117     1.0000 0.40854  0.48377  0.60529  Biso   1.000  O
  O118     1.0000 0.56385  0.54371  0.56077  Biso   1.000  O
  O119     1.0000 0.54384  0.52371  0.54074  Biso   1.000  O
  O120     1.0000 0.45310  0.43305  0.56068  Biso   1.000  O
  O121     1.0000 0.47313  0.45307  0.54068  Biso   1.000  O
  O122     1.0000 0.50315  0.60207  0.44893  Biso   1.000  O
  O123     1.0000 0.49984  0.37478  0.44885  Biso   1.000  O
  O124     1.0000 0.62217  0.54484  0.51087  Biso   1.000  O
  O125     1.0000 0.39489  0.54492  0.49995  Biso   1.000  O
  O126     1.0000 0.39482  0.43197  0.51074  Biso   1.000  O
  O127     1.0000 0.62212  0.43187  0.50000  Biso   1.000  O
  O128     1.0000 0.56502  0.48301  0.39175  Biso   1.000  O
  O129     1.0000 0.45206  0.49389  0.39170  Biso   1.000  O
  O130     1.0000 0.62216  0.48296  0.44890  Biso   1.000  O
  O131     1.0000 0.39489  0.49388  0.44881  Biso   1.000  O
  O132     1.0000 0.56507  0.60202  0.51085  Biso   1.000  O
  O133     1.0000 0.56496  0.37473  0.49995  Biso   1.000  O
  O134     1.0000 0.45193  0.37478  0.51074  Biso   1.000  O
  O135     1.0000 0.45204  0.60206  0.49999  Biso   1.000  O
  O136     1.0000 0.50315  0.54496  0.39175  Biso   1.000  O
  O137     1.0000 0.49990  0.43194  0.39171  Biso   1.000  O
  O138     1.0000 0.50152  0.56389  0.51241  Biso   1.000  O
  O139     1.0000 0.50145  0.41290  0.51236  Biso   1.000  O
  O140     1.0000 0.58399  0.49538  0.51242  Biso   1.000  O
  O141     1.0000 0.43300  0.49544  0.51236  Biso   1.000  O
  O142     1.0000 0.50151  0.49544  0.42988  Biso   1.000  O
  O143     1.0000 0.47297  0.45290  0.46980  Biso   1.000  O
  O144     1.0000 0.54407  0.52394  0.46986  Biso   1.000  O
  O145     1.0000 0.50391  0.58840  0.40548  Biso   1.000  O
  O146     1.0000 0.49910  0.38848  0.40541  Biso   1.000  O
  O147     1.0000 0.60851  0.58829  0.51012  Biso   1.000  O
  O148     1.0000 0.40858  0.58836  0.50074  Biso   1.000  O
  O149     1.0000 0.40849  0.38850  0.50998  Biso   1.000  O
  O150     1.0000 0.60841  0.38843  0.50074  Biso   1.000  O
  O151     1.0000 0.60846  0.48376  0.40546  Biso   1.000  O
  O152     1.0000 0.40861  0.49314  0.40537  Biso   1.000  O
  O153     1.0000 0.56385  0.43305  0.45003  Biso   1.000  O
  O154     1.0000 0.54384  0.45307  0.47003  Biso   1.000  O
  O155     1.0000 0.45319  0.54379  0.45003  Biso   1.000  O
  O156     1.0000 0.47319  0.52377  0.47003  Biso   1.000  O
  O157     1.0000 0.50337  0.79704  0.19759  Biso   1.000  O
  O158     1.0000 0.48303  0.83213  0.19874  Biso   1.000  O
  O159     1.0000 0.48191  0.86670  0.16395  Biso   1.000  O
  O160     1.0000 0.50112  0.86653  0.12761  Biso   1.000  O
  O161     1.0000 0.53562  0.83137  0.12671  Biso   1.000  O
  O162     1.0000 0.53669  0.79680  0.16150  Biso   1.000  O
  O163     1.0000 0.50429  0.76123  0.23329  Biso   1.000  O
  O164     1.0000 0.50490  0.73123  0.26315  Biso   1.000  O
  O165     1.0000 0.50537  0.69539  0.29883  Biso   1.000  O
  O166     1.0000 0.50550  0.64797  0.28620  Biso   1.000  O
  O167     1.0000 0.50529  0.61316  0.32079  Biso   1.000  O
  O168     1.0000 0.50494  0.62530  0.36868  Biso   1.000  O
  O169     1.0000 0.50510  0.67315  0.38097  Biso   1.000  O
  O170     1.0000 0.50529  0.70787  0.34630  Biso   1.000  O
  O171     1.0000 0.45707  0.83270  0.22646  Biso   1.000  O
  O172     1.0000 0.45504  0.89352  0.16518  Biso   1.000  O
  O173     1.0000 0.56164  0.83080  0.09906  Biso   1.000  O
  O174     1.0000 0.56346  0.76986  0.16024  Biso   1.000  O
  O175     1.0000 0.50556  0.63787  0.24957  Biso   1.000  O
  O176     1.0000 0.50523  0.57678  0.30994  Biso   1.000  O
  O177     1.0000 0.50487  0.68388  0.41740  Biso   1.000  O
  O178     1.0000 0.50519  0.74445  0.35653  Biso   1.000  O
  O179     1.0000 0.51192  0.79675  0.81340  Biso   1.000  O
  O180     1.0000 0.47820  0.83246  0.81292  Biso   1.000  O
  O181     1.0000 0.47842  0.86704  0.84772  Biso   1.000  O
  O182     1.0000 0.49835  0.86623  0.88340  Biso   1.000  O
  O183     1.0000 0.53224  0.83047  0.88358  Biso   1.000  O
  O184     1.0000 0.53195  0.79589  0.84879  Biso   1.000  O
  O185     1.0000 0.51157  0.76099  0.77764  Biso   1.000  O
  O186     1.0000 0.51135  0.73102  0.74774  Biso   1.000  O
  O187     1.0000 0.51123  0.69521  0.71203  Biso   1.000  O
  O188     1.0000 0.51114  0.70772  0.66458  Biso   1.000  O
  O189     1.0000 0.51153  0.67304  0.62989  Biso   1.000  O
  O190     1.0000 0.49799  0.62518  0.64215  Biso   1.000  O
  O191     1.0000 0.51186  0.61301  0.69003  Biso   1.000  O
  O192     1.0000 0.51149  0.64778  0.72464  Biso   1.000  O
  O193     1.0000 0.45170  0.83351  0.78572  Biso   1.000  O
  O194     1.0000 0.45204  0.89436  0.84703  Biso   1.000  O
  O195     1.0000 0.55882  0.82943  0.91068  Biso   1.000  O
  O196     1.0000 0.55827  0.76849  0.84949  Biso   1.000  O
  O197     1.0000 0.51092  0.74432  0.65438  Biso   1.000  O
  O198     1.0000 0.51159  0.68380  0.59347  Biso   1.000  O
  O199     1.0000 0.49818  0.57662  0.70086  Biso   1.000  O
  O200     1.0000 0.51154  0.63766  0.76126  Biso   1.000  O
  O201     1.0000 0.50322  0.17976  0.81316  Biso   1.000  O
  O202     1.0000 0.53656  0.18002  0.84923  Biso   1.000  O
  O203     1.0000 0.53550  0.14544  0.88402  Biso   1.000  O
  O204     1.0000 0.50102  0.11027  0.88314  Biso   1.000  O
  O205     1.0000 0.48179  0.11008  0.84682  Biso   1.000  O
  O206     1.0000 0.48289  0.14466  0.81202  Biso   1.000  O
  O207     1.0000 0.50412  0.21557  0.77746  Biso   1.000  O
  O208     1.0000 0.50472  0.24557  0.74759  Biso   1.000  O
  O209     1.0000 0.50518  0.28140  0.71190  Biso   1.000  O
  O210     1.0000 0.50531  0.32883  0.72455  Biso   1.000  O
  O211     1.0000 0.50511  0.36363  0.68996  Biso   1.000  O
  O212     1.0000 0.50477  0.35150  0.64207  Biso   1.000  O
  O213     1.0000 0.50492  0.30364  0.62977  Biso   1.000  O
  O214     1.0000 0.50510  0.26894  0.66445  Biso   1.000  O
  O215     1.0000 0.56331  0.20695  0.85049  Biso   1.000  O
  O216     1.0000 0.56154  0.14602  0.91167  Biso   1.000  O
  O217     1.0000 0.45493  0.08326  0.84559  Biso   1.000  O
  O218     1.0000 0.45691  0.14408  0.78430  Biso   1.000  O
  O219     1.0000 0.50538  0.33893  0.76116  Biso   1.000  O
  O220     1.0000 0.50505  0.40001  0.70081  Biso   1.000  O
  O221     1.0000 0.50470  0.29291  0.59335  Biso   1.000  O
  O222     1.0000 0.50501  0.23235  0.65421  Biso   1.000  O
  O223     1.0000 0.51193  0.18005  0.19735  Biso   1.000  O
  O224     1.0000 0.53195  0.18092  0.16195  Biso   1.000  O
  O225     1.0000 0.53223  0.14633  0.12715  Biso   1.000  O
  O226     1.0000 0.49836  0.11057  0.12735  Biso   1.000  O
  O227     1.0000 0.47844  0.10974  0.16304  Biso   1.000  O
  O228     1.0000 0.47823  0.14433  0.19784  Biso   1.000  O
  O229     1.0000 0.51158  0.21581  0.23311  Biso   1.000  O
  O230     1.0000 0.51136  0.24578  0.26300  Biso   1.000  O
  O231     1.0000 0.51125  0.28158  0.29871  Biso   1.000  O
  O232     1.0000 0.51155  0.32901  0.28610  Biso   1.000  O
  O233     1.0000 0.51192  0.36379  0.32071  Biso   1.000  O
  O234     1.0000 0.49800  0.35162  0.36859  Biso   1.000  O
  O235     1.0000 0.51148  0.30376  0.38086  Biso   1.000  O
  O236     1.0000 0.51110  0.26908  0.34616  Biso   1.000  O
  O237     1.0000 0.55825  0.20832  0.16123  Biso   1.000  O
  O238     1.0000 0.55880  0.14739  0.10003  Biso   1.000  O
  O239     1.0000 0.45208  0.08242  0.16374  Biso   1.000  O
  O240     1.0000 0.45174  0.14325  0.22504  Biso   1.000  O
  O241     1.0000 0.51165  0.33913  0.24948  Biso   1.000  O
  O242     1.0000 0.49828  0.40018  0.30988  Biso   1.000  O
  O243     1.0000 0.51150  0.29300  0.41726  Biso   1.000  O
  O244     1.0000 0.51084  0.23248  0.35637  Biso   1.000  O
  O245     1.0000 0.20072  0.49371  0.19673  Biso   1.000  O
  O246     1.0000 0.16464  0.46038  0.19699  Biso   1.000  O
  O247     1.0000 0.12985  0.46143  0.16241  Biso   1.000  O
  O248     1.0000 0.13073  0.48189  0.12724  Biso   1.000  O
  O249     1.0000 0.16706  0.51515  0.12706  Biso   1.000  O
  O250     1.0000 0.20185  0.51404  0.16163  Biso   1.000  O
  O251     1.0000 0.23641  0.49281  0.23254  Biso   1.000  O
  O252     1.0000 0.26629  0.49221  0.26254  Biso   1.000  O
  O253     1.0000 0.30197  0.49173  0.29837  Biso   1.000  O
  O254     1.0000 0.34944  0.49180  0.28591  Biso   1.000  O
  O255     1.0000 0.38411  0.49199  0.32062  Biso   1.000  O
  O256     1.0000 0.37181  0.49214  0.36847  Biso   1.000  O
  O257     1.0000 0.32391  0.49179  0.38060  Biso   1.000  O
  O258     1.0000 0.28932  0.49161  0.34579  Biso   1.000  O
  O259     1.0000 0.16338  0.43362  0.22392  Biso   1.000  O
  O260     1.0000 0.10219  0.43539  0.16300  Biso   1.000  O
  O261     1.0000 0.16828  0.54200  0.10023  Biso   1.000  O
  O262     1.0000 0.22957  0.54001  0.16105  Biso   1.000  O
  O263     1.0000 0.35967  0.49190  0.24932  Biso   1.000  O
  O264     1.0000 0.42052  0.49221  0.30988  Biso   1.000  O
  O265     1.0000 0.31306  0.49185  0.41698  Biso   1.000  O
  O266     1.0000 0.25271  0.49154  0.35589  Biso   1.000  O
  O267     1.0000 0.81652  0.48498  0.19703  Biso   1.000  O
  O268     1.0000 0.81603  0.51870  0.16130  Biso   1.000  O
  O269     1.0000 0.85084  0.51848  0.12672  Biso   1.000  O
  O270     1.0000 0.88652  0.48454  0.12753  Biso   1.000  O
  O271     1.0000 0.88672  0.46470  0.16331  Biso   1.000  O
  O272     1.0000 0.85193  0.46497  0.19789  Biso   1.000  O
  O273     1.0000 0.78078  0.48533  0.23278  Biso   1.000  O
  O274     1.0000 0.75087  0.48555  0.26276  Biso   1.000  O
  O275     1.0000 0.71516  0.48566  0.29856  Biso   1.000  O
  O276     1.0000 0.66771  0.48580  0.28606  Biso   1.000  O
  O277     1.0000 0.63302  0.48542  0.32074  Biso   1.000  O
  O278     1.0000 0.64528  0.48486  0.36859  Biso   1.000  O
  O279     1.0000 0.69316  0.48497  0.38076  Biso   1.000  O
  O280     1.0000 0.72777  0.48535  0.34599  Biso   1.000  O
  O281     1.0000 0.78882  0.54517  0.16024  Biso   1.000  O
  O282     1.0000 0.85013  0.54486  0.09939  Biso   1.000  O
  O283     1.0000 0.91385  0.43814  0.16436  Biso   1.000  O
  O284     1.0000 0.85265  0.43868  0.22530  Biso   1.000  O
  O285     1.0000 0.65750  0.48606  0.24946  Biso   1.000  O
  O286     1.0000 0.59661  0.48540  0.30998  Biso   1.000  O
  O287     1.0000 0.70399  0.48459  0.41715  Biso   1.000  O
  O288     1.0000 0.76439  0.48525  0.35611  Biso   1.000  O
  O289     1.0000 0.81628  0.49357  0.81402  Biso   1.000  O
  O290     1.0000 0.81513  0.51390  0.84910  Biso   1.000  O
  O291     1.0000 0.84992  0.51504  0.88368  Biso   1.000  O
  O292     1.0000 0.88627  0.48179  0.88350  Biso   1.000  O
  O293     1.0000 0.88717  0.46132  0.84834  Biso   1.000  O
  O294     1.0000 0.85238  0.46025  0.81376  Biso   1.000  O
  O295     1.0000 0.78058  0.49264  0.77820  Biso   1.000  O
  O296     1.0000 0.75071  0.49203  0.74821  Biso   1.000  O
  O297     1.0000 0.71503  0.49154  0.71237  Biso   1.000  O
  O298     1.0000 0.66757  0.49162  0.72483  Biso   1.000  O
  O299     1.0000 0.63290  0.49181  0.69013  Biso   1.000  O
  O300     1.0000 0.64519  0.49197  0.64227  Biso   1.000  O
  O301     1.0000 0.69308  0.49160  0.63014  Biso   1.000  O
  O302     1.0000 0.72767  0.49142  0.66494  Biso   1.000  O
  O303     1.0000 0.78741  0.53986  0.84967  Biso   1.000  O
  O304     1.0000 0.84869  0.54190  0.91049  Biso   1.000  O
  O305     1.0000 0.91482  0.43529  0.84777  Biso   1.000  O
  O306     1.0000 0.85364  0.43348  0.78684  Biso   1.000  O
  O307     1.0000 0.65734  0.49172  0.76142  Biso   1.000  O
  O308     1.0000 0.59648  0.49205  0.70086  Biso   1.000  O
  O309     1.0000 0.70393  0.49167  0.59376  Biso   1.000  O
  O310     1.0000 0.76430  0.49135  0.65484  Biso   1.000  O
  O311     1.0000 0.20047  0.48501  0.81371  Biso   1.000  O
  O312     1.0000 0.20094  0.51874  0.84943  Biso   1.000  O
  O313     1.0000 0.16614  0.51853  0.88401  Biso   1.000  O
  O314     1.0000 0.13048  0.48457  0.88320  Biso   1.000  O
  O315     1.0000 0.13028  0.46471  0.84745  Biso   1.000  O
  O316     1.0000 0.16509  0.46499  0.81286  Biso   1.000  O
  O317     1.0000 0.23623  0.48537  0.77796  Biso   1.000  O
  O318     1.0000 0.26612  0.48559  0.74798  Biso   1.000  O
  O319     1.0000 0.30184  0.48570  0.71219  Biso   1.000  O
  O320     1.0000 0.28922  0.48544  0.66476  Biso   1.000  O
  O321     1.0000 0.32384  0.48505  0.62998  Biso   1.000  O
  O322     1.0000 0.37171  0.48489  0.64216  Biso   1.000  O
  O323     1.0000 0.38398  0.48539  0.69001  Biso   1.000  O
  O324     1.0000 0.34928  0.48578  0.72469  Biso   1.000  O
  O325     1.0000 0.22815  0.54523  0.85048  Biso   1.000  O
  O326     1.0000 0.16684  0.54490  0.91132  Biso   1.000  O
  O327     1.0000 0.10318  0.43813  0.84639  Biso   1.000  O
  O328     1.0000 0.16438  0.43868  0.78547  Biso   1.000  O
  O329     1.0000 0.25261  0.48539  0.65463  Biso   1.000  O
  O330     1.0000 0.31301  0.48471  0.59360  Biso   1.000  O
  O331     1.0000 0.42040  0.48533  0.70077  Biso   1.000  O
  O332     1.0000 0.35950  0.48601  0.76129  Biso   1.000  O
  O333     1.0000 0.20017  0.79643  0.50204  Biso   1.000  O
  O334     1.0000 0.16446  0.79595  0.53577  Biso   1.000  O
  O335     1.0000 0.12987  0.83076  0.53556  Biso   1.000  O
  O336     1.0000 0.13068  0.86643  0.50161  Biso   1.000  O
  O337     1.0000 0.16642  0.86662  0.48175  Biso   1.000  O
  O338     1.0000 0.20101  0.83183  0.48202  Biso   1.000  O
  O339     1.0000 0.23593  0.76068  0.50237  Biso   1.000  O
  O340     1.0000 0.26589  0.73077  0.50259  Biso   1.000  O
  O341     1.0000 0.30170  0.69507  0.50269  Biso   1.000  O
  O342     1.0000 0.28918  0.64762  0.50276  Biso   1.000  O
  O343     1.0000 0.32386  0.61292  0.50237  Biso   1.000  O
  O344     1.0000 0.37172  0.62518  0.50186  Biso   1.000  O
  O345     1.0000 0.38389  0.67306  0.50203  Biso   1.000  O
  O346     1.0000 0.34912  0.70767  0.50241  Biso   1.000  O
  O347     1.0000 0.16340  0.76875  0.56226  Biso   1.000  O
  O348     1.0000 0.10257  0.83006  0.56195  Biso   1.000  O
  O349     1.0000 0.16747  0.89374  0.45518  Biso   1.000  O
  O350     1.0000 0.22840  0.83254  0.45571  Biso   1.000  O
  O351     1.0000 0.25259  0.63741  0.50299  Biso   1.000  O
  O352     1.0000 0.31310  0.57651  0.50230  Biso   1.000  O
  O353     1.0000 0.42029  0.68389  0.50168  Biso   1.000  O
  O354     1.0000 0.35924  0.74429  0.50236  Biso   1.000  O
  O355     1.0000 0.19986  0.18062  0.51060  Biso   1.000  O
  O356     1.0000 0.20010  0.14453  0.47728  Biso   1.000  O
  O357     1.0000 0.16552  0.10974  0.47837  Biso   1.000  O
  O358     1.0000 0.13036  0.11064  0.49884  Biso   1.000  O
  O359     1.0000 0.13019  0.14698  0.53208  Biso   1.000  O
  O360     1.0000 0.16477  0.18178  0.53094  Biso   1.000  O
  O361     1.0000 0.23566  0.21632  0.50966  Biso   1.000  O
  O362     1.0000 0.26567  0.24618  0.50903  Biso   1.000  O
  O363     1.0000 0.30150  0.28187  0.50855  Biso   1.000  O
  O364     1.0000 0.34892  0.26923  0.50842  Biso   1.000  O
  O365     1.0000 0.38373  0.30382  0.50860  Biso   1.000  O
  O366     1.0000 0.37159  0.35170  0.50895  Biso   1.000  O
  O367     1.0000 0.32374  0.36400  0.50880  Biso   1.000  O
  O368     1.0000 0.28903  0.32934  0.50862  Biso   1.000  O
  O369     1.0000 0.22702  0.14326  0.45051  Biso   1.000  O
  O370     1.0000 0.16610  0.08207  0.45235  Biso   1.000  O
  O371     1.0000 0.10338  0.14822  0.55895  Biso   1.000  O
  O372     1.0000 0.16420  0.20951  0.55690  Biso   1.000  O
  O373     1.0000 0.35902  0.23261  0.50835  Biso   1.000  O
  O374     1.0000 0.42011  0.29296  0.50866  Biso   1.000  O
  O375     1.0000 0.31301  0.40043  0.50902  Biso   1.000  O
  O376     1.0000 0.25244  0.33957  0.50872  Biso   1.000  O
  O377     1.0000 0.81684  0.18036  0.50203  Biso   1.000  O
  O378     1.0000 0.85256  0.18086  0.53575  Biso   1.000  O
  O379     1.0000 0.88714  0.14606  0.53554  Biso   1.000  O
  O380     1.0000 0.88633  0.11038  0.50160  Biso   1.000  O
  O381     1.0000 0.85056  0.11016  0.48176  Biso   1.000  O
  O382     1.0000 0.81597  0.14495  0.48202  Biso   1.000  O
  O383     1.0000 0.78108  0.21612  0.50236  Biso   1.000  O
  O384     1.0000 0.75111  0.24602  0.50258  Biso   1.000  O
  O385     1.0000 0.71530  0.28173  0.50268  Biso   1.000  O
  O386     1.0000 0.72781  0.32918  0.50281  Biso   1.000  O
  O387     1.0000 0.69313  0.36387  0.50241  Biso   1.000  O
  O388     1.0000 0.64527  0.35161  0.50186  Biso   1.000  O
  O389     1.0000 0.63310  0.30373  0.50197  Biso   1.000  O
  O390     1.0000 0.66787  0.26912  0.50235  Biso   1.000  O
  O391     1.0000 0.85363  0.20808  0.56222  Biso   1.000  O
  O392     1.0000 0.91446  0.14677  0.56192  Biso   1.000  O
  O393     1.0000 0.84951  0.08304  0.45520  Biso   1.000  O
  O394     1.0000 0.78858  0.14423  0.45573  Biso   1.000  O
  O395     1.0000 0.76441  0.33938  0.50307  Biso   1.000  O
  O396     1.0000 0.70389  0.40029  0.50239  Biso   1.000  O
  O397     1.0000 0.59671  0.29290  0.50158  Biso   1.000  O
  O398     1.0000 0.65775  0.23251  0.50227  Biso   1.000  O
  O399     1.0000 0.81715  0.79618  0.51074  Biso   1.000  O
  O400     1.0000 0.85225  0.79503  0.53107  Biso   1.000  O
  O401     1.0000 0.88681  0.82983  0.53219  Biso   1.000  O
  O402     1.0000 0.88663  0.86617  0.49894  Biso   1.000  O
  O403     1.0000 0.85147  0.86706  0.47847  Biso   1.000  O
  O404     1.0000 0.81690  0.83227  0.47742  Biso   1.000  O
  O405     1.0000 0.78134  0.76048  0.50982  Biso   1.000  O
  O406     1.0000 0.75134  0.73061  0.50922  Biso   1.000  O
  O407     1.0000 0.71550  0.69493  0.50873  Biso   1.000  O
  O408     1.0000 0.72798  0.64746  0.50880  Biso   1.000  O
  O409     1.0000 0.69327  0.61279  0.50897  Biso   1.000  O
  O410     1.0000 0.64540  0.62509  0.50911  Biso   1.000  O
  O411     1.0000 0.63328  0.67298  0.50877  Biso   1.000  O
  O412     1.0000 0.66809  0.70757  0.50860  Biso   1.000  O
  O413     1.0000 0.85281  0.76732  0.55704  Biso   1.000  O
  O414     1.0000 0.91365  0.82861  0.55905  Biso   1.000  O
  O415     1.0000 0.85089  0.89471  0.45244  Biso   1.000  O
  O416     1.0000 0.78996  0.83352  0.45065  Biso   1.000  O
  O417     1.0000 0.76455  0.63723  0.50890  Biso   1.000  O
  O418     1.0000 0.70399  0.57638  0.50920  Biso   1.000  O
  O419     1.0000 0.59689  0.68383  0.50883  Biso   1.000  O
