data_image0
_cell_length_a       27.86
_cell_length_b       27.86
_cell_length_c       27.86
_cell_angle_alpha    90
_cell_angle_beta     90
_cell_angle_gamma    90

_symmetry_space_group_name_H-M    "P 1"
_symmetry_int_tables_number       1

loop_
  _symmetry_equiv_pos_as_xyz
  'x, y, z'

loop_
  _atom_site_label
  _atom_site_occupancy
  _atom_site_fract_x
  _atom_site_fract_y
  _atom_site_fract_z
  _atom_site_thermal_displace_type
  _atom_site_B_iso_or_equiv
  _atom_site_type_symbol
  Cu1      1.0000 0.00000  0.45244  0.00000  Biso   1.000  Cu
  Cu2      1.0000 0.50000  0.50000  0.84464  Biso   1.000  Cu
  Cu3      1.0000 0.84464  0.50000  0.50000  Biso   1.000  Cu
  Cu4      1.0000 0.75021  0.50000  0.50000  Biso   1.000  Cu
  Cu5      1.0000 0.15536  0.50000  0.50000  Biso   1.000  Cu
  Cu6      1.0000 0.45244  0.00000  0.00000  Biso   1.000  Cu
  Cu7      1.0000 0.50000  0.75021  0.50000  Biso   1.000  Cu
  Cu8      1.0000 0.24979  0.50000  0.50000  Biso   1.000  Cu
  Cu9      1.0000 0.50000  0.24979  0.50000  Biso   1.000  Cu
  Cu10     1.0000 0.00000  0.00000  0.54756  Biso   1.000  Cu
  Cu11     1.0000 0.50000  0.15536  0.50000  Biso   1.000  Cu
  Cu12     1.0000 0.50000  0.50000  0.75021  Biso   1.000  Cu
  Cu13     1.0000 0.50000  0.84464  0.50000  Biso   1.000  Cu
  Cu14     1.0000 0.50000  0.50000  0.15536  Biso   1.000  Cu
  Cu15     1.0000 0.00000  0.00000  0.45244  Biso   1.000  Cu
  Cu16     1.0000 0.54756  0.00000  0.00000  Biso   1.000  Cu
  Cu17     1.0000 0.00000  0.54756  0.00000  Biso   1.000  Cu
  Cu18     1.0000 0.50000  0.50000  0.24979  Biso   1.000  Cu
  H1       1.0000 0.50000  0.73410  0.12820  Biso   1.000  H
  H2       1.0000 0.10730  0.43100  0.89270  Biso   1.000  H
  H3       1.0000 0.50000  0.26590  0.12820  Biso   1.000  H
  H4       1.0000 0.72590  0.65320  0.50000  Biso   1.000  H
  H5       1.0000 0.73410  0.50000  0.12820  Biso   1.000  H
  H6       1.0000 0.16780  0.83220  0.43230  Biso   1.000  H
  H7       1.0000 0.10730  0.89270  0.56900  Biso   1.000  H
  H8       1.0000 0.16780  0.83220  0.56770  Biso   1.000  H
  H9       1.0000 0.34860  0.50000  0.87010  Biso   1.000  H
  H10      1.0000 0.43100  0.10730  0.10730  Biso   1.000  H
  H11      1.0000 0.50000  0.87180  0.73410  Biso   1.000  H
  H12      1.0000 0.50000  0.65140  0.12990  Biso   1.000  H
  H13      1.0000 0.26590  0.50000  0.87180  Biso   1.000  H
  H14      1.0000 0.89270  0.89270  0.43100  Biso   1.000  H
  H15      1.0000 0.73410  0.87180  0.50000  Biso   1.000  H
  H16      1.0000 0.12990  0.50000  0.34860  Biso   1.000  H
  H17      1.0000 0.27410  0.50000  0.65320  Biso   1.000  H
  H18      1.0000 0.83220  0.16780  0.56770  Biso   1.000  H
  H19      1.0000 0.87010  0.34860  0.50000  Biso   1.000  H
  H20      1.0000 0.50000  0.12820  0.26590  Biso   1.000  H
  H21      1.0000 0.83220  0.56770  0.16780  Biso   1.000  H
  H22      1.0000 0.34680  0.50000  0.72590  Biso   1.000  H
  H23      1.0000 0.27410  0.50000  0.34680  Biso   1.000  H
  H24      1.0000 0.34680  0.27410  0.50000  Biso   1.000  H
  H25      1.0000 0.65320  0.27410  0.50000  Biso   1.000  H
  H26      1.0000 0.12990  0.65140  0.50000  Biso   1.000  H
  H27      1.0000 0.65140  0.87010  0.50000  Biso   1.000  H
  H28      1.0000 0.50000  0.26590  0.87180  Biso   1.000  H
  H29      1.0000 0.43100  0.89270  0.10730  Biso   1.000  H
  H30      1.0000 0.34680  0.50000  0.27410  Biso   1.000  H
  H31      1.0000 0.43100  0.89270  0.89270  Biso   1.000  H
  H32      1.0000 0.50000  0.72590  0.34680  Biso   1.000  H
  H33      1.0000 0.50000  0.27410  0.34680  Biso   1.000  H
  H34      1.0000 0.83220  0.16780  0.43230  Biso   1.000  H
  H35      1.0000 0.12820  0.73410  0.50000  Biso   1.000  H
  H36      1.0000 0.34860  0.87010  0.50000  Biso   1.000  H
  H37      1.0000 0.56770  0.83220  0.16780  Biso   1.000  H
  H38      1.0000 0.83220  0.83220  0.56770  Biso   1.000  H
  H39      1.0000 0.87180  0.26590  0.50000  Biso   1.000  H
  H40      1.0000 0.56770  0.83220  0.83220  Biso   1.000  H
  H41      1.0000 0.50000  0.87180  0.26590  Biso   1.000  H
  H42      1.0000 0.34680  0.72590  0.50000  Biso   1.000  H
  H43      1.0000 0.50000  0.72590  0.65320  Biso   1.000  H
  H44      1.0000 0.16780  0.43230  0.83220  Biso   1.000  H
  H45      1.0000 0.89270  0.10730  0.56900  Biso   1.000  H
  H46      1.0000 0.43230  0.16780  0.16780  Biso   1.000  H
  H47      1.0000 0.83220  0.83220  0.43230  Biso   1.000  H
  H48      1.0000 0.50000  0.65320  0.72590  Biso   1.000  H
  H49      1.0000 0.56900  0.89270  0.10730  Biso   1.000  H
  H50      1.0000 0.12990  0.34860  0.50000  Biso   1.000  H
  H51      1.0000 0.10730  0.10730  0.56900  Biso   1.000  H
  H52      1.0000 0.16780  0.43230  0.16780  Biso   1.000  H
  H53      1.0000 0.89270  0.10730  0.43100  Biso   1.000  H
  H54      1.0000 0.27410  0.34680  0.50000  Biso   1.000  H
  H55      1.0000 0.87180  0.50000  0.73410  Biso   1.000  H
  H56      1.0000 0.72590  0.50000  0.65320  Biso   1.000  H
  H57      1.0000 0.10730  0.10730  0.43100  Biso   1.000  H
  H58      1.0000 0.65320  0.50000  0.72590  Biso   1.000  H
  H59      1.0000 0.50000  0.65140  0.87010  Biso   1.000  H
  H60      1.0000 0.65140  0.50000  0.87010  Biso   1.000  H
  H61      1.0000 0.65320  0.72590  0.50000  Biso   1.000  H
  H62      1.0000 0.56900  0.10730  0.89270  Biso   1.000  H
  H63      1.0000 0.50000  0.87010  0.65140  Biso   1.000  H
  H64      1.0000 0.83220  0.43230  0.83220  Biso   1.000  H
  H65      1.0000 0.89270  0.43100  0.89270  Biso   1.000  H
  H66      1.0000 0.89270  0.56900  0.10730  Biso   1.000  H
  H67      1.0000 0.89270  0.56900  0.89270  Biso   1.000  H
  H68      1.0000 0.87010  0.50000  0.34860  Biso   1.000  H
  H69      1.0000 0.87180  0.73410  0.50000  Biso   1.000  H
  H70      1.0000 0.65140  0.12990  0.50000  Biso   1.000  H
  H71      1.0000 0.34860  0.12990  0.50000  Biso   1.000  H
  H72      1.0000 0.43230  0.83220  0.16780  Biso   1.000  H
  H73      1.0000 0.89270  0.43100  0.10730  Biso   1.000  H
  H74      1.0000 0.65140  0.50000  0.12990  Biso   1.000  H
  H75      1.0000 0.12820  0.50000  0.73410  Biso   1.000  H
  H76      1.0000 0.50000  0.27410  0.65320  Biso   1.000  H
  H77      1.0000 0.50000  0.65320  0.27410  Biso   1.000  H
  H78      1.0000 0.26590  0.87180  0.50000  Biso   1.000  H
  H79      1.0000 0.83220  0.56770  0.83220  Biso   1.000  H
  H80      1.0000 0.73410  0.50000  0.87180  Biso   1.000  H
  H81      1.0000 0.27410  0.65320  0.50000  Biso   1.000  H
  H82      1.0000 0.10730  0.56900  0.89270  Biso   1.000  H
  H83      1.0000 0.87010  0.65140  0.50000  Biso   1.000  H
  H84      1.0000 0.83220  0.43230  0.16780  Biso   1.000  H
  H85      1.0000 0.50000  0.12990  0.34860  Biso   1.000  H
  H86      1.0000 0.50000  0.34860  0.12990  Biso   1.000  H
  H87      1.0000 0.10730  0.56900  0.10730  Biso   1.000  H
  H88      1.0000 0.56770  0.16780  0.16780  Biso   1.000  H
  H89      1.0000 0.72590  0.50000  0.34680  Biso   1.000  H
  H90      1.0000 0.65320  0.50000  0.27410  Biso   1.000  H
  H91      1.0000 0.50000  0.12820  0.73410  Biso   1.000  H
  H92      1.0000 0.26590  0.12820  0.50000  Biso   1.000  H
  H93      1.0000 0.12820  0.26590  0.50000  Biso   1.000  H
  H94      1.0000 0.10730  0.89270  0.43100  Biso   1.000  H
  H95      1.0000 0.12990  0.50000  0.65140  Biso   1.000  H
  H96      1.0000 0.50000  0.73410  0.87180  Biso   1.000  H
  H97      1.0000 0.43230  0.83220  0.83220  Biso   1.000  H
  H98      1.0000 0.16780  0.16780  0.43230  Biso   1.000  H
  H99      1.0000 0.12820  0.50000  0.26590  Biso   1.000  H
  H100     1.0000 0.50000  0.34680  0.72590  Biso   1.000  H
  H101     1.0000 0.87180  0.50000  0.26590  Biso   1.000  H
  H102     1.0000 0.16780  0.16780  0.56770  Biso   1.000  H
  H103     1.0000 0.50000  0.87010  0.34860  Biso   1.000  H
  H104     1.0000 0.43230  0.16780  0.83220  Biso   1.000  H
  H105     1.0000 0.56900  0.89270  0.89270  Biso   1.000  H
  H106     1.0000 0.72590  0.34680  0.50000  Biso   1.000  H
  H107     1.0000 0.50000  0.34860  0.87010  Biso   1.000  H
  H108     1.0000 0.87010  0.50000  0.65140  Biso   1.000  H
  H109     1.0000 0.50000  0.12990  0.65140  Biso   1.000  H
  H110     1.0000 0.50000  0.34680  0.27410  Biso   1.000  H
  H111     1.0000 0.43100  0.10730  0.89270  Biso   1.000  H
  H112     1.0000 0.34860  0.50000  0.12990  Biso   1.000  H
  H113     1.0000 0.56900  0.10730  0.10730  Biso   1.000  H
  H114     1.0000 0.73410  0.12820  0.50000  Biso   1.000  H
  H115     1.0000 0.89270  0.89270  0.56900  Biso   1.000  H
  H116     1.0000 0.16780  0.56770  0.83220  Biso   1.000  H
  H117     1.0000 0.10730  0.43100  0.10730  Biso   1.000  H
  H118     1.0000 0.16780  0.56770  0.16780  Biso   1.000  H
  H119     1.0000 0.26590  0.50000  0.12820  Biso   1.000  H
  H120     1.0000 0.56770  0.16780  0.83220  Biso   1.000  H
  C1       1.0000 0.75523  0.50000  0.28092  Biso   1.000  C
  C2       1.0000 0.50000  0.25683  0.80004  Biso   1.000  C
  C3       1.0000 0.50000  0.71789  0.84258  Biso   1.000  C
  C4       1.0000 0.10148  0.89852  0.50000  Biso   1.000  C
  C5       1.0000 0.15591  0.53880  0.15591  Biso   1.000  C
  C6       1.0000 0.50000  0.40931  0.79735  Biso   1.000  C
  C7       1.0000 0.28092  0.24477  0.50000  Biso   1.000  C
  C8       1.0000 0.80004  0.25683  0.50000  Biso   1.000  C
  C9       1.0000 0.10148  0.10148  0.50000  Biso   1.000  C
  C10      1.0000 0.50000  0.89852  0.89852  Biso   1.000  C
  C11      1.0000 0.50000  0.66858  0.15853  Biso   1.000  C
  C12      1.0000 0.84258  0.50000  0.28211  Biso   1.000  C
  C13      1.0000 0.88134  0.46030  0.11866  Biso   1.000  C
  C14      1.0000 0.50000  0.80004  0.25683  Biso   1.000  C
  C15      1.0000 0.50000  0.33142  0.84147  Biso   1.000  C
  C16      1.0000 0.50000  0.74317  0.80004  Biso   1.000  C
  C17      1.0000 0.40931  0.50000  0.20265  Biso   1.000  C
  C18      1.0000 0.28211  0.50000  0.84258  Biso   1.000  C
  C19      1.0000 0.20259  0.50000  0.35600  Biso   1.000  C
  C20      1.0000 0.53880  0.15591  0.15591  Biso   1.000  C
  C21      1.0000 0.50000  0.84258  0.28211  Biso   1.000  C
  C22      1.0000 0.50000  0.71908  0.75523  Biso   1.000  C
  C23      1.0000 0.71908  0.24477  0.50000  Biso   1.000  C
  C24      1.0000 0.46120  0.15591  0.15591  Biso   1.000  C
  C25      1.0000 0.46030  0.11866  0.11866  Biso   1.000  C
  C26      1.0000 0.15591  0.53880  0.84409  Biso   1.000  C
  C27      1.0000 0.35600  0.79741  0.50000  Biso   1.000  C
  C28      1.0000 0.50000  0.71789  0.15742  Biso   1.000  C
  C29      1.0000 0.88134  0.88134  0.53970  Biso   1.000  C
  C30      1.0000 0.28092  0.50000  0.75523  Biso   1.000  C
  C31      1.0000 0.11866  0.11866  0.53970  Biso   1.000  C
  C32      1.0000 0.84147  0.66858  0.50000  Biso   1.000  C
  C33      1.0000 0.84147  0.50000  0.33142  Biso   1.000  C
  C34      1.0000 0.20265  0.50000  0.40931  Biso   1.000  C
  C35      1.0000 0.15742  0.71789  0.50000  Biso   1.000  C
  C36      1.0000 0.71789  0.84258  0.50000  Biso   1.000  C
  C37      1.0000 0.84147  0.50000  0.66858  Biso   1.000  C
  C38      1.0000 0.80004  0.74317  0.50000  Biso   1.000  C
  C39      1.0000 0.20259  0.64400  0.50000  Biso   1.000  C
  C40      1.0000 0.84409  0.46120  0.15591  Biso   1.000  C
  C41      1.0000 0.84258  0.28211  0.50000  Biso   1.000  C
  C42      1.0000 0.50000  0.33046  0.24496  Biso   1.000  C
  C43      1.0000 0.75523  0.71908  0.50000  Biso   1.000  C
  C44      1.0000 0.24496  0.66954  0.50000  Biso   1.000  C
  C45      1.0000 0.25683  0.50000  0.80004  Biso   1.000  C
  C46      1.0000 0.74317  0.50000  0.80004  Biso   1.000  C
  C47      1.0000 0.79741  0.50000  0.64400  Biso   1.000  C
  C48      1.0000 0.35600  0.50000  0.20259  Biso   1.000  C
  C49      1.0000 0.50000  0.24496  0.66954  Biso   1.000  C
  C50      1.0000 0.50000  0.35600  0.79741  Biso   1.000  C
  C51      1.0000 0.46120  0.15591  0.84409  Biso   1.000  C
  C52      1.0000 0.50000  0.17224  0.82776  Biso   1.000  C
  C53      1.0000 0.19996  0.74317  0.50000  Biso   1.000  C
  C54      1.0000 0.11866  0.88134  0.53970  Biso   1.000  C
  C55      1.0000 0.11866  0.11866  0.46030  Biso   1.000  C
  C56      1.0000 0.84409  0.53880  0.15591  Biso   1.000  C
  C57      1.0000 0.28211  0.84258  0.50000  Biso   1.000  C
  C58      1.0000 0.84409  0.15591  0.46120  Biso   1.000  C
  C59      1.0000 0.84258  0.50000  0.71789  Biso   1.000  C
  C60      1.0000 0.40931  0.50000  0.79735  Biso   1.000  C
  C61      1.0000 0.88134  0.11866  0.46030  Biso   1.000  C
  C62      1.0000 0.66858  0.15853  0.50000  Biso   1.000  C
  C63      1.0000 0.50000  0.06376  0.93624  Biso   1.000  C
  C64      1.0000 0.50000  0.93624  0.93624  Biso   1.000  C
  C65      1.0000 0.24477  0.50000  0.71908  Biso   1.000  C
  C66      1.0000 0.50000  0.84147  0.33142  Biso   1.000  C
  C67      1.0000 0.84409  0.84409  0.53880  Biso   1.000  C
  C68      1.0000 0.84409  0.46120  0.84409  Biso   1.000  C
  C69      1.0000 0.15591  0.46120  0.15591  Biso   1.000  C
  C70      1.0000 0.25683  0.80004  0.50000  Biso   1.000  C
  C71      1.0000 0.50000  0.20265  0.40931  Biso   1.000  C
  C72      1.0000 0.50000  0.79741  0.64400  Biso   1.000  C
  C73      1.0000 0.88134  0.53970  0.88134  Biso   1.000  C
  C74      1.0000 0.33046  0.75504  0.50000  Biso   1.000  C
  C75      1.0000 0.71789  0.50000  0.84258  Biso   1.000  C
  C76      1.0000 0.59069  0.20265  0.50000  Biso   1.000  C
  C77      1.0000 0.50000  0.15853  0.33142  Biso   1.000  C
  C78      1.0000 0.50000  0.33142  0.15853  Biso   1.000  C
  C79      1.0000 0.17224  0.50000  0.17224  Biso   1.000  C
  C80      1.0000 0.88134  0.11866  0.53970  Biso   1.000  C
  C81      1.0000 0.71789  0.50000  0.15742  Biso   1.000  C
  C82      1.0000 0.33142  0.15853  0.50000  Biso   1.000  C
  C83      1.0000 0.71908  0.50000  0.24477  Biso   1.000  C
  C84      1.0000 0.84409  0.53880  0.84409  Biso   1.000  C
  C85      1.0000 0.89852  0.10148  0.50000  Biso   1.000  C
  C86      1.0000 0.15742  0.50000  0.71789  Biso   1.000  C
  C87      1.0000 0.80004  0.50000  0.74317  Biso   1.000  C
  C88      1.0000 0.50000  0.15853  0.66858  Biso   1.000  C
  C89      1.0000 0.50000  0.64400  0.20259  Biso   1.000  C
  C90      1.0000 0.59069  0.50000  0.79735  Biso   1.000  C
  C91      1.0000 0.20265  0.40931  0.50000  Biso   1.000  C
  C92      1.0000 0.17224  0.50000  0.82776  Biso   1.000  C
  C93      1.0000 0.33142  0.84147  0.50000  Biso   1.000  C
  C94      1.0000 0.50000  0.24477  0.28092  Biso   1.000  C
  C95      1.0000 0.53970  0.11866  0.11866  Biso   1.000  C
  C96      1.0000 0.28211  0.15742  0.50000  Biso   1.000  C
  C97      1.0000 0.15853  0.66858  0.50000  Biso   1.000  C
  C98      1.0000 0.75523  0.50000  0.71908  Biso   1.000  C
  C99      1.0000 0.35600  0.50000  0.79741  Biso   1.000  C
  C100     1.0000 0.15591  0.84409  0.53880  Biso   1.000  C
  C101     1.0000 0.84409  0.84409  0.46120  Biso   1.000  C
  C102     1.0000 0.20259  0.50000  0.64400  Biso   1.000  C
  C103     1.0000 0.84258  0.71789  0.50000  Biso   1.000  C
  C104     1.0000 0.19996  0.50000  0.74317  Biso   1.000  C
  C105     1.0000 0.93624  0.93624  0.50000  Biso   1.000  C
  C106     1.0000 0.46030  0.88134  0.88134  Biso   1.000  C
  C107     1.0000 0.50000  0.24477  0.71908  Biso   1.000  C
  C108     1.0000 0.66954  0.24496  0.50000  Biso   1.000  C
  C109     1.0000 0.50000  0.75523  0.28092  Biso   1.000  C
  C110     1.0000 0.66954  0.50000  0.24496  Biso   1.000  C
  C111     1.0000 0.74317  0.50000  0.19996  Biso   1.000  C
  C112     1.0000 0.40931  0.20265  0.50000  Biso   1.000  C
  C113     1.0000 0.19996  0.50000  0.25683  Biso   1.000  C
  C114     1.0000 0.50000  0.66858  0.84147  Biso   1.000  C
  C115     1.0000 0.17224  0.82776  0.50000  Biso   1.000  C
  C116     1.0000 0.59069  0.50000  0.20265  Biso   1.000  C
  C117     1.0000 0.50000  0.79735  0.40931  Biso   1.000  C
  C118     1.0000 0.50000  0.82776  0.17224  Biso   1.000  C
  C119     1.0000 0.33142  0.50000  0.15853  Biso   1.000  C
  C120     1.0000 0.71789  0.15742  0.50000  Biso   1.000  C
  C121     1.0000 0.50000  0.28092  0.24477  Biso   1.000  C
  C122     1.0000 0.46030  0.11866  0.88134  Biso   1.000  C
  C123     1.0000 0.15742  0.50000  0.28211  Biso   1.000  C
  C124     1.0000 0.53970  0.88134  0.11866  Biso   1.000  C
  C125     1.0000 0.06376  0.93624  0.50000  Biso   1.000  C
  C126     1.0000 0.11866  0.46030  0.88134  Biso   1.000  C
  C127     1.0000 0.53970  0.11866  0.88134  Biso   1.000  C
  C128     1.0000 0.50000  0.66954  0.75504  Biso   1.000  C
  C129     1.0000 0.50000  0.33046  0.75504  Biso   1.000  C
  C130     1.0000 0.50000  0.28211  0.84258  Biso   1.000  C
  C131     1.0000 0.11866  0.88134  0.46030  Biso   1.000  C
  C132     1.0000 0.33046  0.24496  0.50000  Biso   1.000  C
  C133     1.0000 0.50000  0.66954  0.24496  Biso   1.000  C
  C134     1.0000 0.46120  0.84409  0.84409  Biso   1.000  C
  C135     1.0000 0.46030  0.88134  0.11866  Biso   1.000  C
  C136     1.0000 0.50000  0.75504  0.33046  Biso   1.000  C
  C137     1.0000 0.74317  0.80004  0.50000  Biso   1.000  C
  C138     1.0000 0.33046  0.50000  0.24496  Biso   1.000  C
  C139     1.0000 0.20265  0.50000  0.59069  Biso   1.000  C
  C140     1.0000 0.50000  0.15742  0.71789  Biso   1.000  C
  C141     1.0000 0.79735  0.40931  0.50000  Biso   1.000  C
  C142     1.0000 0.75523  0.28092  0.50000  Biso   1.000  C
  C143     1.0000 0.82776  0.50000  0.17224  Biso   1.000  C
  C144     1.0000 0.64400  0.50000  0.20259  Biso   1.000  C
  C145     1.0000 0.11866  0.53970  0.88134  Biso   1.000  C
  C146     1.0000 0.15853  0.33142  0.50000  Biso   1.000  C
  C147     1.0000 0.24496  0.33046  0.50000  Biso   1.000  C
  C148     1.0000 0.50000  0.20265  0.59069  Biso   1.000  C
  C149     1.0000 0.28092  0.50000  0.24477  Biso   1.000  C
  C150     1.0000 0.20259  0.35600  0.50000  Biso   1.000  C
  C151     1.0000 0.50000  0.19996  0.25683  Biso   1.000  C
  C152     1.0000 0.88134  0.88134  0.46030  Biso   1.000  C
  C153     1.0000 0.79741  0.35600  0.50000  Biso   1.000  C
  C154     1.0000 0.10148  0.50000  0.89852  Biso   1.000  C
  C155     1.0000 0.50000  0.75523  0.71908  Biso   1.000  C
  C156     1.0000 0.66858  0.50000  0.84147  Biso   1.000  C
  C157     1.0000 0.50000  0.17224  0.17224  Biso   1.000  C
  C158     1.0000 0.15591  0.46120  0.84409  Biso   1.000  C
  C159     1.0000 0.50000  0.06376  0.06376  Biso   1.000  C
  C160     1.0000 0.89852  0.50000  0.89852  Biso   1.000  C
  C161     1.0000 0.24477  0.50000  0.28092  Biso   1.000  C
  C162     1.0000 0.93624  0.50000  0.06376  Biso   1.000  C
  C163     1.0000 0.75504  0.66954  0.50000  Biso   1.000  C
  C164     1.0000 0.24477  0.28092  0.50000  Biso   1.000  C
  C165     1.0000 0.59069  0.79735  0.50000  Biso   1.000  C
  C166     1.0000 0.15853  0.50000  0.33142  Biso   1.000  C
  C167     1.0000 0.15591  0.15591  0.46120  Biso   1.000  C
  C168     1.0000 0.66954  0.75504  0.50000  Biso   1.000  C
  C169     1.0000 0.93624  0.06376  0.50000  Biso   1.000  C
  C170     1.0000 0.79741  0.50000  0.35600  Biso   1.000  C
  C171     1.0000 0.53970  0.88134  0.88134  Biso   1.000  C
  C172     1.0000 0.50000  0.15742  0.28211  Biso   1.000  C
  C173     1.0000 0.10148  0.50000  0.10148  Biso   1.000  C
  C174     1.0000 0.50000  0.64400  0.79741  Biso   1.000  C
  C175     1.0000 0.66954  0.50000  0.75504  Biso   1.000  C
  C176     1.0000 0.53880  0.84409  0.15591  Biso   1.000  C
  C177     1.0000 0.50000  0.59069  0.20265  Biso   1.000  C
  C178     1.0000 0.20265  0.59069  0.50000  Biso   1.000  C
  C179     1.0000 0.50000  0.20259  0.35600  Biso   1.000  C
  C180     1.0000 0.06376  0.50000  0.06376  Biso   1.000  C
  C181     1.0000 0.50000  0.10148  0.10148  Biso   1.000  C
  C182     1.0000 0.50000  0.93624  0.06376  Biso   1.000  C
  C183     1.0000 0.82776  0.50000  0.82776  Biso   1.000  C
  C184     1.0000 0.50000  0.25683  0.19996  Biso   1.000  C
  C185     1.0000 0.50000  0.20259  0.64400  Biso   1.000  C
  C186     1.0000 0.64400  0.79741  0.50000  Biso   1.000  C
  C187     1.0000 0.06376  0.06376  0.50000  Biso   1.000  C
  C188     1.0000 0.11866  0.53970  0.11866  Biso   1.000  C
  C189     1.0000 0.66858  0.50000  0.15853  Biso   1.000  C
  C190     1.0000 0.33046  0.50000  0.75504  Biso   1.000  C
  C191     1.0000 0.24496  0.50000  0.33046  Biso   1.000  C
  C192     1.0000 0.50000  0.80004  0.74317  Biso   1.000  C
  C193     1.0000 0.75504  0.50000  0.66954  Biso   1.000  C
  C194     1.0000 0.79741  0.64400  0.50000  Biso   1.000  C
  C195     1.0000 0.50000  0.24496  0.33046  Biso   1.000  C
  C196     1.0000 0.88134  0.46030  0.88134  Biso   1.000  C
  C197     1.0000 0.50000  0.84258  0.71789  Biso   1.000  C
  C198     1.0000 0.75504  0.50000  0.33046  Biso   1.000  C
  C199     1.0000 0.25683  0.19996  0.50000  Biso   1.000  C
  C200     1.0000 0.82776  0.82776  0.50000  Biso   1.000  C
  C201     1.0000 0.50000  0.19996  0.74317  Biso   1.000  C
  C202     1.0000 0.79735  0.50000  0.59069  Biso   1.000  C
  C203     1.0000 0.66858  0.84147  0.50000  Biso   1.000  C
  C204     1.0000 0.06376  0.50000  0.93624  Biso   1.000  C
  C205     1.0000 0.93624  0.50000  0.93624  Biso   1.000  C
  C206     1.0000 0.53880  0.15591  0.84409  Biso   1.000  C
  C207     1.0000 0.50000  0.75504  0.66954  Biso   1.000  C
  C208     1.0000 0.50000  0.40931  0.20265  Biso   1.000  C
  C209     1.0000 0.50000  0.74317  0.19996  Biso   1.000  C
  C210     1.0000 0.11866  0.46030  0.11866  Biso   1.000  C
  C211     1.0000 0.79735  0.50000  0.40931  Biso   1.000  C
  C212     1.0000 0.50000  0.84147  0.66858  Biso   1.000  C
  C213     1.0000 0.35600  0.20259  0.50000  Biso   1.000  C
  C214     1.0000 0.80004  0.50000  0.25683  Biso   1.000  C
  C215     1.0000 0.50000  0.79741  0.35600  Biso   1.000  C
  C216     1.0000 0.50000  0.28092  0.75523  Biso   1.000  C
  C217     1.0000 0.82776  0.17224  0.50000  Biso   1.000  C
  C218     1.0000 0.79735  0.59069  0.50000  Biso   1.000  C
  C219     1.0000 0.15742  0.28211  0.50000  Biso   1.000  C
  C220     1.0000 0.88134  0.53970  0.11866  Biso   1.000  C
  C221     1.0000 0.15591  0.84409  0.46120  Biso   1.000  C
  C222     1.0000 0.50000  0.71908  0.24477  Biso   1.000  C
  C223     1.0000 0.53880  0.84409  0.84409  Biso   1.000  C
  C224     1.0000 0.89852  0.89852  0.50000  Biso   1.000  C
  C225     1.0000 0.74317  0.19996  0.50000  Biso   1.000  C
  C226     1.0000 0.33142  0.50000  0.84147  Biso   1.000  C
  C227     1.0000 0.50000  0.82776  0.82776  Biso   1.000  C
  C228     1.0000 0.84409  0.15591  0.53880  Biso   1.000  C
  C229     1.0000 0.46120  0.84409  0.15591  Biso   1.000  C
  C230     1.0000 0.75504  0.33046  0.50000  Biso   1.000  C
  C231     1.0000 0.89852  0.50000  0.10148  Biso   1.000  C
  C232     1.0000 0.15853  0.50000  0.66858  Biso   1.000  C
  C233     1.0000 0.50000  0.79735  0.59069  Biso   1.000  C
  C234     1.0000 0.24477  0.71908  0.50000  Biso   1.000  C
  C235     1.0000 0.64400  0.20259  0.50000  Biso   1.000  C
  C236     1.0000 0.50000  0.10148  0.89852  Biso   1.000  C
  C237     1.0000 0.50000  0.28211  0.15742  Biso   1.000  C
  C238     1.0000 0.40931  0.79735  0.50000  Biso   1.000  C
  C239     1.0000 0.71908  0.75523  0.50000  Biso   1.000  C
  C240     1.0000 0.84147  0.33142  0.50000  Biso   1.000  C
  C241     1.0000 0.28092  0.75523  0.50000  Biso   1.000  C
  C242     1.0000 0.28211  0.50000  0.15742  Biso   1.000  C
  C243     1.0000 0.19996  0.25683  0.50000  Biso   1.000  C
  C244     1.0000 0.50000  0.89852  0.10148  Biso   1.000  C
  C245     1.0000 0.15591  0.15591  0.53880  Biso   1.000  C
  C246     1.0000 0.50000  0.59069  0.79735  Biso   1.000  C
  C247     1.0000 0.64400  0.50000  0.79741  Biso   1.000  C
  C248     1.0000 0.17224  0.17224  0.50000  Biso   1.000  C
  C249     1.0000 0.24496  0.50000  0.66954  Biso   1.000  C
  C250     1.0000 0.71908  0.50000  0.75523  Biso   1.000  C
  C251     1.0000 0.25683  0.50000  0.19996  Biso   1.000  C
  C252     1.0000 0.50000  0.35600  0.20259  Biso   1.000  C
  N1       1.0000 0.50000  0.20824  0.20824  Biso   1.000  N
  N2       1.0000 0.20824  0.79176  0.50000  Biso   1.000  N
  N3       1.0000 0.20824  0.50000  0.20824  Biso   1.000  N
  N4       1.0000 0.79176  0.50000  0.79176  Biso   1.000  N
  N5       1.0000 0.50000  0.79176  0.20824  Biso   1.000  N
  N6       1.0000 0.79176  0.20824  0.50000  Biso   1.000  N
  N7       1.0000 0.20824  0.50000  0.79176  Biso   1.000  N
  N8       1.0000 0.50000  0.79176  0.79176  Biso   1.000  N
  N9       1.0000 0.20824  0.20824  0.50000  Biso   1.000  N
  N10      1.0000 0.79176  0.79176  0.50000  Biso   1.000  N
  N11      1.0000 0.50000  0.20824  0.79176  Biso   1.000  N
  N12      1.0000 0.79176  0.50000  0.20824  Biso   1.000  N
  O1       1.0000 0.50000  0.24268  0.43002  Biso   1.000  O
  O2       1.0000 0.24268  0.50000  0.43002  Biso   1.000  O
  O3       1.0000 0.83727  0.43028  0.50000  Biso   1.000  O
  O4       1.0000 0.50000  0.56998  0.75732  Biso   1.000  O
  O5       1.0000 0.56998  0.50000  0.75732  Biso   1.000  O
  O6       1.0000 0.95003  0.95003  0.46012  Biso   1.000  O
  O7       1.0000 0.04997  0.46012  0.04997  Biso   1.000  O
  O8       1.0000 0.50000  0.24268  0.56998  Biso   1.000  O
  O9       1.0000 0.24268  0.50000  0.56998  Biso   1.000  O
  O10      1.0000 0.56998  0.50000  0.24268  Biso   1.000  O
  O11      1.0000 0.75732  0.56998  0.50000  Biso   1.000  O
  O12      1.0000 0.50000  0.16273  0.56972  Biso   1.000  O
  O13      1.0000 0.56972  0.83727  0.50000  Biso   1.000  O
  O14      1.0000 0.24268  0.56998  0.50000  Biso   1.000  O
  O15      1.0000 0.50000  0.43002  0.24268  Biso   1.000  O
  O16      1.0000 0.83727  0.56972  0.50000  Biso   1.000  O
  O17      1.0000 0.95003  0.04997  0.46012  Biso   1.000  O
  O18      1.0000 0.04997  0.53988  0.04997  Biso   1.000  O
  O19      1.0000 0.50000  0.43028  0.83727  Biso   1.000  O
  O20      1.0000 0.43002  0.50000  0.75732  Biso   1.000  O
  O21      1.0000 0.95003  0.04997  0.53988  Biso   1.000  O
  O22      1.0000 0.16273  0.50000  0.43028  Biso   1.000  O
  O23      1.0000 0.56998  0.24268  0.50000  Biso   1.000  O
  O24      1.0000 0.95003  0.46012  0.95003  Biso   1.000  O
  O25      1.0000 0.04997  0.46012  0.95003  Biso   1.000  O
  O26      1.0000 0.43028  0.16273  0.50000  Biso   1.000  O
  O27      1.0000 0.53988  0.95003  0.04997  Biso   1.000  O
  O28      1.0000 0.50000  0.56972  0.16273  Biso   1.000  O
  O29      1.0000 0.95003  0.46012  0.04997  Biso   1.000  O
  O30      1.0000 0.53988  0.95003  0.95003  Biso   1.000  O
  O31      1.0000 0.04997  0.04997  0.46012  Biso   1.000  O
  O32      1.0000 0.50000  0.75732  0.43002  Biso   1.000  O
  O33      1.0000 0.46012  0.04997  0.95003  Biso   1.000  O
  O34      1.0000 0.04997  0.95003  0.46012  Biso   1.000  O
  O35      1.0000 0.50000  0.56998  0.24268  Biso   1.000  O
  O36      1.0000 0.50000  0.43002  0.75732  Biso   1.000  O
  O37      1.0000 0.16273  0.56972  0.50000  Biso   1.000  O
  O38      1.0000 0.50000  0.75732  0.56998  Biso   1.000  O
  O39      1.0000 0.43028  0.50000  0.16273  Biso   1.000  O
  O40      1.0000 0.95003  0.95003  0.53988  Biso   1.000  O
  O41      1.0000 0.04997  0.95003  0.53988  Biso   1.000  O
  O42      1.0000 0.83727  0.50000  0.56972  Biso   1.000  O
  O43      1.0000 0.75732  0.50000  0.43002  Biso   1.000  O
  O44      1.0000 0.43002  0.50000  0.24268  Biso   1.000  O
  O45      1.0000 0.56972  0.50000  0.83727  Biso   1.000  O
  O46      1.0000 0.43028  0.83727  0.50000  Biso   1.000  O
  O47      1.0000 0.50000  0.83727  0.43028  Biso   1.000  O
  O48      1.0000 0.16273  0.43028  0.50000  Biso   1.000  O
  O49      1.0000 0.75732  0.50000  0.56998  Biso   1.000  O
  O50      1.0000 0.46012  0.04997  0.04997  Biso   1.000  O
  O51      1.0000 0.56972  0.50000  0.16273  Biso   1.000  O
  O52      1.0000 0.50000  0.16273  0.43028  Biso   1.000  O
  O53      1.0000 0.50000  0.56972  0.83727  Biso   1.000  O
  O54      1.0000 0.24268  0.43002  0.50000  Biso   1.000  O
  O55      1.0000 0.04997  0.04997  0.53988  Biso   1.000  O
  O56      1.0000 0.43002  0.24268  0.50000  Biso   1.000  O
  O57      1.0000 0.43002  0.75732  0.50000  Biso   1.000  O
  O58      1.0000 0.50000  0.83727  0.56972  Biso   1.000  O
  O59      1.0000 0.83727  0.50000  0.43028  Biso   1.000  O
  O60      1.0000 0.53988  0.04997  0.04997  Biso   1.000  O
  O61      1.0000 0.50000  0.43028  0.16273  Biso   1.000  O
  O62      1.0000 0.46012  0.95003  0.95003  Biso   1.000  O
  O63      1.0000 0.95003  0.53988  0.04997  Biso   1.000  O
  O64      1.0000 0.46012  0.95003  0.04997  Biso   1.000  O
  O65      1.0000 0.43028  0.50000  0.83727  Biso   1.000  O
  O66      1.0000 0.56998  0.75732  0.50000  Biso   1.000  O
  O67      1.0000 0.56972  0.16273  0.50000  Biso   1.000  O
  O68      1.0000 0.95003  0.53988  0.95003  Biso   1.000  O
  O69      1.0000 0.53988  0.04997  0.95003  Biso   1.000  O
  O70      1.0000 0.04997  0.53988  0.95003  Biso   1.000  O
  O71      1.0000 0.75732  0.43002  0.50000  Biso   1.000  O
  O72      1.0000 0.16273  0.50000  0.56972  Biso   1.000  O
  C253     1.0000 0.39483  0.53841  0.96913  Biso   1.000  C
  C254     1.0000 0.37044  0.49448  0.97083  Biso   1.000  C
  C255     1.0000 0.39512  0.45074  0.97157  Biso   1.000  C
  C256     1.0000 0.44597  0.45061  0.97108  Biso   1.000  C
  C257     1.0000 0.47136  0.49481  0.96936  Biso   1.000  C
  C258     1.0000 0.44572  0.53888  0.96840  Biso   1.000  C
  C259     1.0000 0.47164  0.58218  0.96785  Biso   1.000  C
  C260     1.0000 0.52168  0.58236  0.96803  Biso   1.000  C
  C261     1.0000 0.54788  0.53922  0.96862  Biso   1.000  C
  C262     1.0000 0.52252  0.49495  0.96924  Biso   1.000  C
  C263     1.0000 0.47204  0.40750  0.97287  Biso   1.000  C
  C264     1.0000 0.52207  0.40761  0.97297  Biso   1.000  C
  C265     1.0000 0.54813  0.45083  0.97059  Biso   1.000  C
  C266     1.0000 0.59910  0.45126  0.97093  Biso   1.000  C
  C267     1.0000 0.62337  0.49535  0.97112  Biso   1.000  C
  C268     1.0000 0.59875  0.53915  0.96982  Biso   1.000  C
  H121     1.0000 0.45344  0.61650  0.96780  Biso   1.000  H
  H122     1.0000 0.53966  0.61678  0.96813  Biso   1.000  H
  H123     1.0000 0.45392  0.37318  0.97225  Biso   1.000  H
  H124     1.0000 0.54004  0.37332  0.97311  Biso   1.000  H
  H125     1.0000 0.33150  0.49431  0.97128  Biso   1.000  H
  H126     1.0000 0.66231  0.49562  0.97157  Biso   1.000  H
  C269     1.0000 0.99726  0.53804  0.36532  Biso   1.000  C
  C270     1.0000 0.99723  0.49411  0.34092  Biso   1.000  C
  C271     1.0000 0.99812  0.45025  0.36542  Biso   1.000  C
  C272     1.0000 0.99814  0.45002  0.41630  Biso   1.000  C
  C273     1.0000 0.99762  0.49421  0.44176  Biso   1.000  C
  C274     1.0000 0.99747  0.53837  0.41623  Biso   1.000  C
  C275     1.0000 0.99662  0.58157  0.44228  Biso   1.000  C
  C276     1.0000 0.99696  0.58161  0.49224  Biso   1.000  C
  C277     1.0000 0.99653  0.53844  0.51836  Biso   1.000  C
  C278     1.0000 0.99680  0.49425  0.49290  Biso   1.000  C
  C279     1.0000 0.99778  0.40684  0.44240  Biso   1.000  C
  C280     1.0000 0.99769  0.40688  0.49237  Biso   1.000  C
  C281     1.0000 0.99667  0.45009  0.51842  Biso   1.000  C
  C282     1.0000 0.99647  0.45039  0.56931  Biso   1.000  C
  C283     1.0000 0.99698  0.49432  0.59373  Biso   1.000  C
  C284     1.0000 0.99673  0.53820  0.56926  Biso   1.000  C
  H127     1.0000 0.99564  0.61598  0.42438  Biso   1.000  H
  H128     1.0000 0.99758  0.61606  0.51010  Biso   1.000  H
  H129     1.0000 0.99744  0.37240  0.42451  Biso   1.000  H
  H130     1.0000 0.99859  0.37247  0.51030  Biso   1.000  H
  H131     1.0000 0.99725  0.49406  0.30198  Biso   1.000  H
  H132     1.0000 0.99682  0.49435  0.63268  Biso   1.000  H
  C285     1.0000 0.54160  0.99511  0.56943  Biso   1.000  C
  C286     1.0000 0.49765  0.99522  0.59379  Biso   1.000  C
  C287     1.0000 0.45377  0.99478  0.56928  Biso   1.000  C
  C288     1.0000 0.45360  0.99476  0.51838  Biso   1.000  C
  C289     1.0000 0.49781  0.99417  0.49296  Biso   1.000  C
  C290     1.0000 0.54195  0.99471  0.51852  Biso   1.000  C
  C291     1.0000 0.58513  0.99660  0.49250  Biso   1.000  C
  C292     1.0000 0.58521  0.99646  0.44253  Biso   1.000  C
  C293     1.0000 0.54210  0.99457  0.41639  Biso   1.000  C
  C294     1.0000 0.49788  0.99423  0.44181  Biso   1.000  C
  C295     1.0000 0.41050  0.99713  0.49224  Biso   1.000  C
  C296     1.0000 0.41058  0.99739  0.44227  Biso   1.000  C
  C297     1.0000 0.45375  0.99514  0.41624  Biso   1.000  C
  C298     1.0000 0.45409  0.99558  0.36534  Biso   1.000  C
  C299     1.0000 0.49806  0.99553  0.34098  Biso   1.000  C
  C300     1.0000 0.54192  0.99480  0.36550  Biso   1.000  C
  H133     1.0000 0.61946  0.99897  0.51045  Biso   1.000  H
  H134     1.0000 0.61959  0.99871  0.42466  Biso   1.000  H
  H135     1.0000 0.37615  0.99970  0.51011  Biso   1.000  H
  H136     1.0000 0.37628  0.00014  0.42433  Biso   1.000  H
  H137     1.0000 0.49760  0.99510  0.63274  Biso   1.000  H
  H138     1.0000 0.49813  0.99551  0.30204  Biso   1.000  H
  O73      1.0000 0.05876  0.87374  0.96786  Biso   1.000  O
  O74      1.0000 0.05989  0.11464  0.97000  Biso   1.000  O
  O75      1.0000 0.11826  0.99388  0.90601  Biso   1.000  O
  O76      1.0000 0.11814  0.99476  0.02895  Biso   1.000  O
  O77      1.0000 0.05964  0.99446  0.08795  Biso   1.000  O
  O78      1.0000 0.05982  0.99333  0.84697  Biso   1.000  O
  O79      1.0000 0.11858  0.05574  0.97051  Biso   1.000  O
  O80      1.0000 0.11793  0.93217  0.96642  Biso   1.000  O
  Zr1      1.0000 0.07518  0.99539  0.96864  Biso   1.000  Zr
  O81      1.0000 0.04450  0.04073  0.01390  Biso   1.000  O
  O82      1.0000 0.04411  0.94768  0.92096  Biso   1.000  O
  C301     1.0000 0.10361  0.88745  0.96638  Biso   1.000  C
  C302     1.0000 0.10463  0.10057  0.97112  Biso   1.000  C
  C303     1.0000 0.10468  0.99279  0.86109  Biso   1.000  C
  C304     1.0000 0.10449  0.99551  0.07388  Biso   1.000  C
  H139     1.0000 0.06472  0.06068  0.90069  Biso   1.000  H
  O83      1.0000 0.04408  0.04016  0.92122  Biso   1.000  O
  H140     1.0000 0.06426  0.92777  0.03409  Biso   1.000  H
  O84      1.0000 0.04370  0.94834  0.01354  Biso   1.000  O
  O85      1.0000 0.93705  0.11509  0.96690  Biso   1.000  O
  O86      1.0000 0.93564  0.87440  0.97116  Biso   1.000  O
  O87      1.0000 0.99496  0.05620  0.84686  Biso   1.000  O
  O88      1.0000 0.99882  0.05640  0.08779  Biso   1.000  O
  O89      1.0000 0.99735  0.93262  0.08797  Biso   1.000  O
  O90      1.0000 0.99792  0.93232  0.84704  Biso   1.000  O
  O91      1.0000 0.87758  0.99574  0.90574  Biso   1.000  O
  O92      1.0000 0.87740  0.99488  0.02869  Biso   1.000  O
  O93      1.0000 0.93608  0.99460  0.84678  Biso   1.000  O
  O94      1.0000 0.93581  0.99407  0.08777  Biso   1.000  O
  O95      1.0000 0.99562  0.11463  0.90586  Biso   1.000  O
  O96      1.0000 0.99762  0.87406  0.90620  Biso   1.000  O
  O97      1.0000 0.99703  0.87423  0.02899  Biso   1.000  O
  O98      1.0000 0.99857  0.11477  0.02868  Biso   1.000  O
  O99      1.0000 0.87778  0.05700  0.96676  Biso   1.000  O
  O100     1.0000 0.87698  0.93333  0.96946  Biso   1.000  O
  Zr2      1.0000 0.99697  0.07162  0.96854  Biso   1.000  Zr
  Zr3      1.0000 0.99622  0.91723  0.96884  Biso   1.000  Zr
  Zr4      1.0000 0.99662  0.99553  0.88985  Biso   1.000  Zr
  Zr5      1.0000 0.99657  0.99572  0.04493  Biso   1.000  Zr
  Zr6      1.0000 0.92050  0.99611  0.96852  Biso   1.000  Zr
  O101     1.0000 0.95104  0.94829  0.01397  Biso   1.000  O
  O102     1.0000 0.95162  0.04107  0.92073  Biso   1.000  O
  C305     1.0000 0.89203  0.10181  0.96604  Biso   1.000  C
  C306     1.0000 0.89086  0.88849  0.97108  Biso   1.000  C
  C307     1.0000 0.99701  0.10107  0.86094  Biso   1.000  C
  C308     1.0000 0.99954  0.10123  0.07362  Biso   1.000  C
  C309     1.0000 0.99649  0.88776  0.07394  Biso   1.000  C
  C310     1.0000 0.99841  0.88747  0.86120  Biso   1.000  C
  C311     1.0000 0.89123  0.99604  0.86082  Biso   1.000  C
  C312     1.0000 0.89096  0.99377  0.07363  Biso   1.000  C
  H141     1.0000 0.93097  0.92806  0.90088  Biso   1.000  H
  O103     1.0000 0.95162  0.94858  0.92138  Biso   1.000  O
  H142     1.0000 0.93155  0.06137  0.03392  Biso   1.000  H
  O104     1.0000 0.95202  0.04068  0.01341  Biso   1.000  O
  C313     1.0000 0.68935  0.32565  0.96887  Biso   1.000  C
  C314     1.0000 0.69212  0.35840  0.00446  Biso   1.000  C
  C315     1.0000 0.66208  0.39867  0.00550  Biso   1.000  C
  C316     1.0000 0.62868  0.40670  0.97105  Biso   1.000  C
  C317     1.0000 0.62607  0.37377  0.93287  Biso   1.000  C
  C318     1.0000 0.65607  0.33337  0.93193  Biso   1.000  C
  C319     1.0000 0.72192  0.28526  0.96711  Biso   1.000  C
  C320     1.0000 0.75023  0.25233  0.96605  Biso   1.000  C
  C321     1.0000 0.78542  0.21417  0.96531  Biso   1.000  C
  C322     1.0000 0.83422  0.22535  0.96926  Biso   1.000  C
  C323     1.0000 0.86872  0.18887  0.96920  Biso   1.000  C
  C324     1.0000 0.85503  0.14034  0.96527  Biso   1.000  C
  C325     1.0000 0.80583  0.12937  0.96115  Biso   1.000  C
  C326     1.0000 0.77132  0.16605  0.96114  Biso   1.000  C
  H143     1.0000 0.71792  0.35312  0.03307  Biso   1.000  H
  H144     1.0000 0.66514  0.42385  0.03496  Biso   1.000  H
  H145     1.0000 0.60122  0.37971  0.90357  Biso   1.000  H
  H146     1.0000 0.65374  0.30855  0.90210  Biso   1.000  H
  H147     1.0000 0.84568  0.26236  0.97260  Biso   1.000  H
  H148     1.0000 0.90614  0.19880  0.97259  Biso   1.000  H
  H149     1.0000 0.79397  0.09249  0.95796  Biso   1.000  H
  H150     1.0000 0.73366  0.15686  0.95804  Biso   1.000  H
  C327     1.0000 0.68907  0.66459  0.97039  Biso   1.000  C
  C328     1.0000 0.68380  0.63674  0.00948  Biso   1.000  C
  C329     1.0000 0.65358  0.59655  0.00948  Biso   1.000  C
  C330     1.0000 0.62788  0.58388  0.97049  Biso   1.000  C
  C331     1.0000 0.63279  0.61212  0.92899  Biso   1.000  C
  C332     1.0000 0.66323  0.65225  0.92896  Biso   1.000  C
  C333     1.0000 0.72206  0.70478  0.97008  Biso   1.000  C
  C334     1.0000 0.75031  0.73783  0.97031  Biso   1.000  C
  C335     1.0000 0.78476  0.77678  0.97103  Biso   1.000  C
  C336     1.0000 0.81572  0.78242  0.00786  Biso   1.000  C
  C337     1.0000 0.85023  0.81903  0.00798  Biso   1.000  C
  C338     1.0000 0.85359  0.85096  0.97165  Biso   1.000  C
  C339     1.0000 0.82214  0.84573  0.93262  Biso   1.000  C
  C340     1.0000 0.78817  0.80858  0.93213  Biso   1.000  C
  H151     1.0000 0.70357  0.64571  0.04174  Biso   1.000  H
  H152     1.0000 0.65054  0.57500  0.04169  Biso   1.000  H
  H153     1.0000 0.61376  0.60253  0.89648  Biso   1.000  H
  H154     1.0000 0.66712  0.67324  0.89645  Biso   1.000  H
  H155     1.0000 0.81340  0.75831  0.03827  Biso   1.000  H
  H156     1.0000 0.87410  0.82269  0.03846  Biso   1.000  H
  H157     1.0000 0.82474  0.86963  0.90204  Biso   1.000  H
  H158     1.0000 0.76488  0.80441  0.90127  Biso   1.000  H
  C341     1.0000 0.30474  0.66370  0.96660  Biso   1.000  C
  C342     1.0000 0.30923  0.63642  0.00613  Biso   1.000  C
  C343     1.0000 0.33928  0.59617  0.00713  Biso   1.000  C
  C344     1.0000 0.36553  0.58293  0.96870  Biso   1.000  C
  C345     1.0000 0.36137  0.61058  0.92674  Biso   1.000  C
  C346     1.0000 0.33110  0.65077  0.92569  Biso   1.000  C
  C347     1.0000 0.27197  0.70393  0.96527  Biso   1.000  C
  C348     1.0000 0.24381  0.73698  0.96491  Biso   1.000  C
  C349     1.0000 0.20934  0.77578  0.96537  Biso   1.000  C
  C350     1.0000 0.17975  0.78247  0.00301  Biso   1.000  C
  C351     1.0000 0.14524  0.81899  0.00323  Biso   1.000  C
  C352     1.0000 0.14049  0.84970  0.96610  Biso   1.000  C
  C353     1.0000 0.17055  0.84345  0.92616  Biso   1.000  C
  C354     1.0000 0.20459  0.80637  0.92565  Biso   1.000  C
  H159     1.0000 0.28902  0.64592  0.03797  Biso   1.000  H
  H160     1.0000 0.34184  0.57508  0.03970  Biso   1.000  H
  H161     1.0000 0.38091  0.60051  0.89468  Biso   1.000  H
  H162     1.0000 0.32777  0.67135  0.89287  Biso   1.000  H
  H163     1.0000 0.18317  0.75929  0.03405  Biso   1.000  H
  H164     1.0000 0.12250  0.82360  0.03445  Biso   1.000  H
  H165     1.0000 0.16696  0.86658  0.89512  Biso   1.000  H
  H166     1.0000 0.22692  0.80136  0.89422  Biso   1.000  H
  C355     1.0000 0.30544  0.32509  0.97371  Biso   1.000  C
  C356     1.0000 0.32083  0.34598  0.01438  Biso   1.000  C
  C357     1.0000 0.35099  0.38627  0.01375  Biso   1.000  C
  C358     1.0000 0.36619  0.40601  0.97243  Biso   1.000  C
  C359     1.0000 0.35121  0.38471  0.92930  Biso   1.000  C
  C360     1.0000 0.32104  0.34447  0.92994  Biso   1.000  C
  C361     1.0000 0.27253  0.28484  0.97169  Biso   1.000  C
  C362     1.0000 0.24446  0.25164  0.97160  Biso   1.000  C
  C363     1.0000 0.21030  0.21246  0.97338  Biso   1.000  C
  C364     1.0000 0.19682  0.18948  0.01365  Biso   1.000  C
  C365     1.0000 0.16283  0.15234  0.01290  Biso   1.000  C
  C366     1.0000 0.14181  0.13805  0.97190  Biso   1.000  C
  C367     1.0000 0.15543  0.16093  0.92916  Biso   1.000  C
  C368     1.0000 0.18961  0.19782  0.92988  Biso   1.000  C
  H167     1.0000 0.30898  0.33153  0.04849  Biso   1.000  H
  H168     1.0000 0.36193  0.40252  0.04733  Biso   1.000  H
  H169     1.0000 0.36229  0.39977  0.89521  Biso   1.000  H
  H170     1.0000 0.30934  0.32888  0.89630  Biso   1.000  H
  H171     1.0000 0.21227  0.20053  0.04758  Biso   1.000  H
  H172     1.0000 0.15240  0.13523  0.04623  Biso   1.000  H
  H173     1.0000 0.13946  0.15032  0.89533  Biso   1.000  H
  H174     1.0000 0.19963  0.21518  0.89656  Biso   1.000  H
  C369     1.0000 0.99632  0.32453  0.65873  Biso   1.000  C
  C370     1.0000 0.95848  0.33342  0.62678  Biso   1.000  C
  C371     1.0000 0.95951  0.37399  0.59705  Biso   1.000  C
  C372     1.0000 0.99614  0.40584  0.59869  Biso   1.000  C
  C373     1.0000 0.03392  0.39667  0.63080  Biso   1.000  C
  C374     1.0000 0.03280  0.35624  0.66054  Biso   1.000  C
  C375     1.0000 0.99475  0.28400  0.69098  Biso   1.000  C
  C376     1.0000 0.99423  0.25102  0.71916  Biso   1.000  C
  C377     1.0000 0.99450  0.21295  0.75432  Biso   1.000  C
  C378     1.0000 0.98356  0.16561  0.74129  Biso   1.000  C
  C379     1.0000 0.98446  0.12898  0.77581  Biso   1.000  C
  C380     1.0000 0.99608  0.13936  0.82390  Biso   1.000  C
  C381     1.0000 0.00442  0.18708  0.83652  Biso   1.000  C
  C382     1.0000 0.00373  0.22346  0.80200  Biso   1.000  C
  H175     1.0000 0.92795  0.30938  0.62529  Biso   1.000  H
  H176     1.0000 0.92965  0.38088  0.57314  Biso   1.000  H
  H177     1.0000 0.06409  0.42109  0.63303  Biso   1.000  H
  H178     1.0000 0.06210  0.35002  0.68534  Biso   1.000  H
  H179     1.0000 0.97436  0.15700  0.70450  Biso   1.000  H
  H180     1.0000 0.97569  0.09270  0.76496  Biso   1.000  H
  H181     1.0000 0.01388  0.19636  0.87307  Biso   1.000  H
  H182     1.0000 0.01246  0.25988  0.81253  Biso   1.000  H
  C383     1.0000 0.00059  0.32437  0.27607  Biso   1.000  C
  C384     1.0000 0.96352  0.35539  0.27530  Biso   1.000  C
  C385     1.0000 0.96248  0.39582  0.30503  Biso   1.000  C
  C386     1.0000 0.99842  0.40565  0.33614  Biso   1.000  C
  C387     1.0000 0.03808  0.37445  0.33686  Biso   1.000  C
  C388     1.0000 0.03906  0.33391  0.30708  Biso   1.000  C
  C389     1.0000 0.00210  0.28392  0.24370  Biso   1.000  C
  C390     1.0000 0.00253  0.25101  0.21544  Biso   1.000  C
  C391     1.0000 0.00210  0.21297  0.18024  Biso   1.000  C
  C392     1.0000 0.98895  0.22270  0.13352  Biso   1.000  C
  C393     1.0000 0.98828  0.18636  0.09894  Biso   1.000  C
  C394     1.0000 0.00049  0.13947  0.11063  Biso   1.000  C
  C395     1.0000 0.01595  0.12981  0.15776  Biso   1.000  C
  C396     1.0000 0.01691  0.16642  0.19229  Biso   1.000  C
  H183     1.0000 0.93371  0.34865  0.25126  Biso   1.000  H
  H184     1.0000 0.93185  0.41972  0.30357  Biso   1.000  H
  H185     1.0000 0.06839  0.38186  0.36003  Biso   1.000  H
  H186     1.0000 0.07003  0.31040  0.30779  Biso   1.000  H
  H187     1.0000 0.97715  0.25846  0.12378  Biso   1.000  H
  H188     1.0000 0.97571  0.19490  0.06315  Biso   1.000  H
  H189     1.0000 0.02779  0.09416  0.16775  Biso   1.000  H
  H190     1.0000 0.02921  0.15844  0.22830  Biso   1.000  H
  C397     1.0000 0.99609  0.66404  0.27606  Biso   1.000  C
  C398     1.0000 0.96016  0.63163  0.27492  Biso   1.000  C
  C399     1.0000 0.96033  0.59114  0.30457  Biso   1.000  C
  C400     1.0000 0.99638  0.58258  0.33593  Biso   1.000  C
  C401     1.0000 0.03499  0.61507  0.33686  Biso   1.000  C
  C402     1.0000 0.03473  0.65571  0.30722  Biso   1.000  C
  C403     1.0000 0.99637  0.70465  0.24387  Biso   1.000  C
  C404     1.0000 0.99605  0.73768  0.21575  Biso   1.000  C
  C405     1.0000 0.99526  0.77581  0.18065  Biso   1.000  C
  C406     1.0000 0.99646  0.76438  0.13178  Biso   1.000  C
  C407     1.0000 0.99565  0.80076  0.09728  Biso   1.000  C
  C408     1.0000 0.99614  0.84942  0.11102  Biso   1.000  C
  C409     1.0000 0.99722  0.86065  0.16032  Biso   1.000  C
  C410     1.0000 0.99553  0.82404  0.19487  Biso   1.000  C
  H191     1.0000 0.93030  0.63738  0.25069  Biso   1.000  H
  H192     1.0000 0.93055  0.56621  0.30288  Biso   1.000  H
  H193     1.0000 0.06543  0.60865  0.36018  Biso   1.000  H
  H194     1.0000 0.06485  0.68027  0.30817  Biso   1.000  H
  H195     1.0000 0.99617  0.72721  0.12029  Biso   1.000  H
  H196     1.0000 0.99485  0.79063  0.05976  Biso   1.000  H
  H197     1.0000 0.99519  0.89765  0.17222  Biso   1.000  H
  H198     1.0000 0.99645  0.83338  0.23260  Biso   1.000  H
  C411     1.0000 0.99728  0.66415  0.65858  Biso   1.000  C
  C412     1.0000 0.03600  0.63211  0.65945  Biso   1.000  C
  C413     1.0000 0.03604  0.59165  0.62975  Biso   1.000  C
  C414     1.0000 0.99742  0.58278  0.59858  Biso   1.000  C
  C415     1.0000 0.96103  0.61495  0.59787  Biso   1.000  C
  C416     1.0000 0.96108  0.65555  0.62757  Biso   1.000  C
  C417     1.0000 0.99676  0.70466  0.69091  Biso   1.000  C
  C418     1.0000 0.99688  0.73759  0.71914  Biso   1.000  C
  C419     1.0000 0.99745  0.77563  0.75433  Biso   1.000  C
  C420     1.0000 0.99839  0.76413  0.80320  Biso   1.000  C
  C421     1.0000 0.99903  0.80047  0.83779  Biso   1.000  C
  C422     1.0000 0.99873  0.84915  0.82409  Biso   1.000  C
  C423     1.0000 0.99799  0.86044  0.77481  Biso   1.000  C
  C424     1.0000 0.99735  0.82390  0.74019  Biso   1.000  C
  H199     1.0000 0.06594  0.63809  0.68355  Biso   1.000  H
  H200     1.0000 0.06605  0.56698  0.63127  Biso   1.000  H
  H201     1.0000 0.93052  0.60828  0.57469  Biso   1.000  H
  H202     1.0000 0.93072  0.67984  0.62681  Biso   1.000  H
  H203     1.0000 0.99857  0.72695  0.81464  Biso   1.000  H
  H204     1.0000 0.99960  0.79030  0.87529  Biso   1.000  H
  H205     1.0000 0.99770  0.89745  0.76294  Biso   1.000  H
  H206     1.0000 0.99669  0.83330  0.70247  Biso   1.000  H
  C425     1.0000 0.66740  0.99602  0.65904  Biso   1.000  C
  C426     1.0000 0.65947  0.96029  0.62726  Biso   1.000  C
  C427     1.0000 0.61894  0.96017  0.59746  Biso   1.000  C
  C428     1.0000 0.58613  0.99600  0.59886  Biso   1.000  C
  C429     1.0000 0.59434  0.03417  0.63078  Biso   1.000  C
  C430     1.0000 0.63474  0.03421  0.66058  Biso   1.000  C
  C431     1.0000 0.70794  0.99558  0.69133  Biso   1.000  C
  C432     1.0000 0.74098  0.99580  0.71943  Biso   1.000  C
  C433     1.0000 0.77931  0.99660  0.75433  Biso   1.000  C
  C434     1.0000 0.82597  0.98526  0.74168  Biso   1.000  C
  C435     1.0000 0.86271  0.98568  0.77606  Biso   1.000  C
  C436     1.0000 0.85311  0.99714  0.82368  Biso   1.000  C
  C437     1.0000 0.80615  0.01125  0.83589  Biso   1.000  C
  C438     1.0000 0.76964  0.01108  0.80146  Biso   1.000  C
  H207     1.0000 0.68426  0.93037  0.62595  Biso   1.000  H
  H208     1.0000 0.61283  0.93002  0.57369  Biso   1.000  H
  H209     1.0000 0.56920  0.06377  0.63281  Biso   1.000  H
  H210     1.0000 0.64022  0.06379  0.68523  Biso   1.000  H
  H211     1.0000 0.83390  0.97386  0.70536  Biso   1.000  H
  H212     1.0000 0.89838  0.97430  0.76560  Biso   1.000  H
  H213     1.0000 0.79759  0.02258  0.87208  Biso   1.000  H
  H214     1.0000 0.73376  0.02208  0.81168  Biso   1.000  H
  C439     1.0000 0.32776  0.99451  0.65855  Biso   1.000  C
  C440     1.0000 0.33613  0.95730  0.62573  Biso   1.000  C
  C441     1.0000 0.37670  0.95844  0.59602  Biso   1.000  C
  C442     1.0000 0.40912  0.99455  0.59855  Biso   1.000  C
  C443     1.0000 0.40044  0.03175  0.63147  Biso   1.000  C
  C444     1.0000 0.35999  0.03052  0.66119  Biso   1.000  C
  C445     1.0000 0.28729  0.99264  0.69087  Biso   1.000  C
  C446     1.0000 0.25437  0.99177  0.71910  Biso   1.000  C
  C447     1.0000 0.21637  0.99159  0.75433  Biso   1.000  C
  C448     1.0000 0.16962  0.97775  0.74191  Biso   1.000  C
  C449     1.0000 0.13304  0.97816  0.77650  Biso   1.000  C
  C450     1.0000 0.14292  0.99213  0.82405  Biso   1.000  C
  C451     1.0000 0.19004  0.00333  0.83610  Biso   1.000  C
  C452     1.0000 0.22634  0.00318  0.80150  Biso   1.000  C
  H215     1.0000 0.31168  0.92714  0.62356  Biso   1.000  H
  H216     1.0000 0.38317  0.92901  0.57146  Biso   1.000  H
  H217     1.0000 0.42524  0.06154  0.63437  Biso   1.000  H
  H218     1.0000 0.35416  0.05934  0.68664  Biso   1.000  H
  H219     1.0000 0.16144  0.96666  0.70555  Biso   1.000  H
  H220     1.0000 0.09722  0.96715  0.76617  Biso   1.000  H
  H221     1.0000 0.19882  0.01472  0.87222  Biso   1.000  H
  H222     1.0000 0.26227  0.01420  0.81154  Biso   1.000  H
  C453     1.0000 0.32829  0.99653  0.27570  Biso   1.000  C
  C454     1.0000 0.33596  0.96107  0.30784  Biso   1.000  C
  C455     1.0000 0.37649  0.96094  0.33763  Biso   1.000  C
  C456     1.0000 0.40956  0.99653  0.33589  Biso   1.000  C
  C457     1.0000 0.40160  0.03446  0.30361  Biso   1.000  C
  C458     1.0000 0.36121  0.03448  0.27381  Biso   1.000  C
  C459     1.0000 0.28776  0.99603  0.24339  Biso   1.000  C
  C460     1.0000 0.25470  0.99615  0.21529  Biso   1.000  C
  C461     1.0000 0.21637  0.99678  0.18040  Biso   1.000  C
  C462     1.0000 0.16992  0.98450  0.19288  Biso   1.000  C
  C463     1.0000 0.13319  0.98468  0.15848  Biso   1.000  C
  C464     1.0000 0.14260  0.99679  0.11102  Biso   1.000  C
  C465     1.0000 0.18929  0.01185  0.09899  Biso   1.000  C
  C466     1.0000 0.22578  0.01195  0.13344  Biso   1.000  C
  H223     1.0000 0.31096  0.93131  0.30942  Biso   1.000  H
  H224     1.0000 0.38239  0.93096  0.36167  Biso   1.000  H
  H225     1.0000 0.42692  0.06387  0.30131  Biso   1.000  H
  H226     1.0000 0.35592  0.06386  0.24887  Biso   1.000  H
  H227     1.0000 0.16218  0.97255  0.22907  Biso   1.000  H
  H228     1.0000 0.09771  0.97258  0.16879  Biso   1.000  H
  H229     1.0000 0.19762  0.02376  0.06293  Biso   1.000  H
  H230     1.0000 0.26146  0.02369  0.12336  Biso   1.000  H
  C467     1.0000 0.66791  0.99470  0.27623  Biso   1.000  C
  C468     1.0000 0.65916  0.95705  0.30844  Biso   1.000  C
  C469     1.0000 0.61861  0.95812  0.33819  Biso   1.000  C
  C470     1.0000 0.58657  0.99458  0.33624  Biso   1.000  C
  C471     1.0000 0.59563  0.03223  0.30395  Biso   1.000  C
  C472     1.0000 0.63608  0.03109  0.27424  Biso   1.000  C
  C473     1.0000 0.70835  0.99296  0.24387  Biso   1.000  C
  C474     1.0000 0.74126  0.99224  0.21561  Biso   1.000  C
  C475     1.0000 0.77927  0.99226  0.18038  Biso   1.000  C
  C476     1.0000 0.82598  0.97823  0.19271  Biso   1.000  C
  C477     1.0000 0.86256  0.97880  0.15814  Biso   1.000  C
  C478     1.0000 0.85273  0.99311  0.11068  Biso   1.000  C
  C479     1.0000 0.80565  0.00451  0.09871  Biso   1.000  C
  C480     1.0000 0.76933  0.00421  0.13332  Biso   1.000  C
  H231     1.0000 0.68330  0.92661  0.31011  Biso   1.000  H
  H232     1.0000 0.61182  0.92837  0.36227  Biso   1.000  H
  H233     1.0000 0.57113  0.06231  0.30155  Biso   1.000  H
  H234     1.0000 0.64222  0.06026  0.24927  Biso   1.000  H
  H235     1.0000 0.83412  0.96684  0.22899  Biso   1.000  H
  H236     1.0000 0.89834  0.96759  0.16839  Biso   1.000  H
  H237     1.0000 0.79691  0.01615  0.06266  Biso   1.000  H
