data_image0
_cell_length_a       37.1634
_cell_length_b       37.1634
_cell_length_c       37.1634
_cell_angle_alpha    60
_cell_angle_beta     60
_cell_angle_gamma    60

_symmetry_space_group_name_H-M    "P 1"
_symmetry_int_tables_number       1

loop_
  _symmetry_equiv_pos_as_xyz
  'x, y, z'

loop_
  _atom_site_label
  _atom_site_occupancy
  _atom_site_fract_x
  _atom_site_fract_y
  _atom_site_fract_z
  _atom_site_thermal_displace_type
  _atom_site_B_iso_or_equiv
  _atom_site_type_symbol
  C1       1.0000 0.78492  0.21508  0.00000  Biso   1.000  C
  C2       1.0000 0.71380  0.28620  0.00000  Biso   1.000  C
  C3       1.0000 0.21508  0.78492  0.00000  Biso   1.000  C
  C4       1.0000 0.28620  0.71380  0.00000  Biso   1.000  C
  C5       1.0000 0.00000  0.00000  0.78492  Biso   1.000  C
  C6       1.0000 0.00000  0.00000  0.71380  Biso   1.000  C
  C7       1.0000 0.00000  0.00000  0.21508  Biso   1.000  C
  C8       1.0000 0.00000  0.00000  0.28620  Biso   1.000  C
  C9       1.0000 0.78492  0.00000  0.00000  Biso   1.000  C
  C10      1.0000 0.71380  0.00000  0.00000  Biso   1.000  C
  C11      1.0000 0.21508  0.00000  0.00000  Biso   1.000  C
  C12      1.0000 0.28620  0.00000  0.00000  Biso   1.000  C
  C13      1.0000 0.00000  0.78492  0.21508  Biso   1.000  C
  C14      1.0000 0.00000  0.71380  0.28620  Biso   1.000  C
  C15      1.0000 0.00000  0.21508  0.78492  Biso   1.000  C
  C16      1.0000 0.00000  0.28620  0.71380  Biso   1.000  C
  C17      1.0000 0.78492  0.00000  0.21508  Biso   1.000  C
  C18      1.0000 0.71380  0.00000  0.28620  Biso   1.000  C
  C19      1.0000 0.21508  0.00000  0.78492  Biso   1.000  C
  C20      1.0000 0.28620  0.00000  0.71380  Biso   1.000  C
  C21      1.0000 0.00000  0.21508  0.00000  Biso   1.000  C
  C22      1.0000 0.00000  0.28620  0.00000  Biso   1.000  C
  C23      1.0000 0.00000  0.78492  0.00000  Biso   1.000  C
  C24      1.0000 0.00000  0.71380  0.00000  Biso   1.000  C
  C25      1.0000 0.75420  0.36040  0.86100  Biso   1.000  C
  C26      1.0000 0.78710  0.47910  0.69030  Biso   1.000  C
  C27      1.0000 0.74680  0.54660  0.64840  Biso   1.000  C
  C28      1.0000 0.36040  0.75420  0.02440  Biso   1.000  C
  C29      1.0000 0.47910  0.78710  0.04350  Biso   1.000  C
  C30      1.0000 0.54660  0.74680  0.05820  Biso   1.000  C
  C31      1.0000 0.86100  0.02440  0.75420  Biso   1.000  C
  C32      1.0000 0.69030  0.04350  0.78710  Biso   1.000  C
  C33      1.0000 0.64840  0.05820  0.74680  Biso   1.000  C
  C34      1.0000 0.02440  0.86100  0.36040  Biso   1.000  C
  C35      1.0000 0.04350  0.69030  0.47910  Biso   1.000  C
  C36      1.0000 0.05820  0.64840  0.54660  Biso   1.000  C
  C37      1.0000 0.75420  0.86100  0.02440  Biso   1.000  C
  C38      1.0000 0.78710  0.69030  0.04350  Biso   1.000  C
  C39      1.0000 0.74680  0.64840  0.05820  Biso   1.000  C
  C40      1.0000 0.36040  0.02440  0.86100  Biso   1.000  C
  C41      1.0000 0.47910  0.04350  0.69030  Biso   1.000  C
  C42      1.0000 0.54660  0.05820  0.64840  Biso   1.000  C
  C43      1.0000 0.86100  0.75420  0.36040  Biso   1.000  C
  C44      1.0000 0.69030  0.78710  0.47910  Biso   1.000  C
  C45      1.0000 0.64840  0.74680  0.54660  Biso   1.000  C
  C46      1.0000 0.02440  0.36040  0.75420  Biso   1.000  C
  C47      1.0000 0.04350  0.47910  0.78710  Biso   1.000  C
  C48      1.0000 0.05820  0.54660  0.74680  Biso   1.000  C
  C49      1.0000 0.75420  0.02440  0.36040  Biso   1.000  C
  C50      1.0000 0.78710  0.04350  0.47910  Biso   1.000  C
  C51      1.0000 0.74680  0.05820  0.54660  Biso   1.000  C
  C52      1.0000 0.36040  0.86100  0.75420  Biso   1.000  C
  C53      1.0000 0.47910  0.69030  0.78710  Biso   1.000  C
  C54      1.0000 0.54660  0.64840  0.74680  Biso   1.000  C
  C55      1.0000 0.86100  0.36040  0.02440  Biso   1.000  C
  C56      1.0000 0.69030  0.47910  0.04350  Biso   1.000  C
  C57      1.0000 0.64840  0.54660  0.05820  Biso   1.000  C
  C58      1.0000 0.02440  0.75420  0.86100  Biso   1.000  C
  C59      1.0000 0.04350  0.78710  0.69030  Biso   1.000  C
  C60      1.0000 0.05820  0.74680  0.64840  Biso   1.000  C
  C61      1.0000 0.63960  0.24580  0.13900  Biso   1.000  C
  C62      1.0000 0.52090  0.21290  0.30970  Biso   1.000  C
  C63      1.0000 0.45340  0.25320  0.35160  Biso   1.000  C
  C64      1.0000 0.24580  0.63960  0.97560  Biso   1.000  C
  C65      1.0000 0.21290  0.52090  0.95650  Biso   1.000  C
  C66      1.0000 0.25320  0.45340  0.94180  Biso   1.000  C
  C67      1.0000 0.97560  0.13900  0.24580  Biso   1.000  C
  C68      1.0000 0.95650  0.30970  0.21290  Biso   1.000  C
  C69      1.0000 0.94180  0.35160  0.25320  Biso   1.000  C
  C70      1.0000 0.13900  0.97560  0.63960  Biso   1.000  C
  C71      1.0000 0.30970  0.95650  0.52090  Biso   1.000  C
  C72      1.0000 0.35160  0.94180  0.45340  Biso   1.000  C
  C73      1.0000 0.13900  0.24580  0.97560  Biso   1.000  C
  C74      1.0000 0.30970  0.21290  0.95650  Biso   1.000  C
  C75      1.0000 0.35160  0.25320  0.94180  Biso   1.000  C
  C76      1.0000 0.97560  0.63960  0.13900  Biso   1.000  C
  C77      1.0000 0.95650  0.52090  0.30970  Biso   1.000  C
  C78      1.0000 0.94180  0.45340  0.35160  Biso   1.000  C
  C79      1.0000 0.24580  0.13900  0.63960  Biso   1.000  C
  C80      1.0000 0.21290  0.30970  0.52090  Biso   1.000  C
  C81      1.0000 0.25320  0.35160  0.45340  Biso   1.000  C
  C82      1.0000 0.63960  0.97560  0.24580  Biso   1.000  C
  C83      1.0000 0.52090  0.95650  0.21290  Biso   1.000  C
  C84      1.0000 0.45340  0.94180  0.25320  Biso   1.000  C
  C85      1.0000 0.97560  0.24580  0.63960  Biso   1.000  C
  C86      1.0000 0.95650  0.21290  0.52090  Biso   1.000  C
  C87      1.0000 0.94180  0.25320  0.45340  Biso   1.000  C
  C88      1.0000 0.13900  0.63960  0.24580  Biso   1.000  C
  C89      1.0000 0.30970  0.52090  0.21290  Biso   1.000  C
  C90      1.0000 0.35160  0.45340  0.25320  Biso   1.000  C
  C91      1.0000 0.63960  0.13900  0.97560  Biso   1.000  C
  C92      1.0000 0.52090  0.30970  0.95650  Biso   1.000  C
  C93      1.0000 0.45340  0.35160  0.94180  Biso   1.000  C
  C94      1.0000 0.24580  0.97560  0.13900  Biso   1.000  C
  C95      1.0000 0.21290  0.95650  0.30970  Biso   1.000  C
  C96      1.0000 0.25320  0.94180  0.35160  Biso   1.000  C
  C97      1.0000 0.24580  0.63960  0.13900  Biso   1.000  C
  C98      1.0000 0.21290  0.52090  0.30970  Biso   1.000  C
  C99      1.0000 0.25320  0.45340  0.35160  Biso   1.000  C
  C100     1.0000 0.63960  0.24580  0.97560  Biso   1.000  C
  C101     1.0000 0.52090  0.21290  0.95650  Biso   1.000  C
  C102     1.0000 0.45340  0.25320  0.94180  Biso   1.000  C
  C103     1.0000 0.13900  0.97560  0.24580  Biso   1.000  C
  C104     1.0000 0.30970  0.95650  0.21290  Biso   1.000  C
  C105     1.0000 0.35160  0.94180  0.25320  Biso   1.000  C
  C106     1.0000 0.97560  0.13900  0.63960  Biso   1.000  C
  C107     1.0000 0.95650  0.30970  0.52090  Biso   1.000  C
  C108     1.0000 0.94180  0.35160  0.45340  Biso   1.000  C
  C109     1.0000 0.24580  0.13900  0.97560  Biso   1.000  C
  C110     1.0000 0.21290  0.30970  0.95650  Biso   1.000  C
  C111     1.0000 0.25320  0.35160  0.94180  Biso   1.000  C
  C112     1.0000 0.63960  0.97560  0.13900  Biso   1.000  C
  C113     1.0000 0.52090  0.95650  0.30970  Biso   1.000  C
  C114     1.0000 0.45340  0.94180  0.35160  Biso   1.000  C
  C115     1.0000 0.13900  0.24580  0.63960  Biso   1.000  C
  C116     1.0000 0.30970  0.21290  0.52090  Biso   1.000  C
  C117     1.0000 0.35160  0.25320  0.45340  Biso   1.000  C
  C118     1.0000 0.97560  0.63960  0.24580  Biso   1.000  C
  C119     1.0000 0.95650  0.52090  0.21290  Biso   1.000  C
  C120     1.0000 0.94180  0.45340  0.25320  Biso   1.000  C
  C121     1.0000 0.24580  0.97560  0.63960  Biso   1.000  C
  C122     1.0000 0.21290  0.95650  0.52090  Biso   1.000  C
  C123     1.0000 0.25320  0.94180  0.45340  Biso   1.000  C
  C124     1.0000 0.63960  0.13900  0.24580  Biso   1.000  C
  C125     1.0000 0.52090  0.30970  0.21290  Biso   1.000  C
  C126     1.0000 0.45340  0.35160  0.25320  Biso   1.000  C
  C127     1.0000 0.13900  0.63960  0.97560  Biso   1.000  C
  C128     1.0000 0.30970  0.52090  0.95650  Biso   1.000  C
  C129     1.0000 0.35160  0.45340  0.94180  Biso   1.000  C
  C130     1.0000 0.97560  0.24580  0.13900  Biso   1.000  C
  C131     1.0000 0.95650  0.21290  0.30970  Biso   1.000  C
  C132     1.0000 0.94180  0.25320  0.35160  Biso   1.000  C
  C133     1.0000 0.36040  0.75420  0.86100  Biso   1.000  C
  C134     1.0000 0.47910  0.78710  0.69030  Biso   1.000  C
  C135     1.0000 0.54660  0.74680  0.64840  Biso   1.000  C
  C136     1.0000 0.75420  0.36040  0.02440  Biso   1.000  C
  C137     1.0000 0.78710  0.47910  0.04350  Biso   1.000  C
  C138     1.0000 0.74680  0.54660  0.05820  Biso   1.000  C
  C139     1.0000 0.02440  0.86100  0.75420  Biso   1.000  C
  C140     1.0000 0.04350  0.69030  0.78710  Biso   1.000  C
  C141     1.0000 0.05820  0.64840  0.74680  Biso   1.000  C
  C142     1.0000 0.86100  0.02440  0.36040  Biso   1.000  C
  C143     1.0000 0.69030  0.04350  0.47910  Biso   1.000  C
  C144     1.0000 0.64840  0.05820  0.54660  Biso   1.000  C
  C145     1.0000 0.86100  0.75420  0.02440  Biso   1.000  C
  C146     1.0000 0.69030  0.78710  0.04350  Biso   1.000  C
  C147     1.0000 0.64840  0.74680  0.05820  Biso   1.000  C
  C148     1.0000 0.02440  0.36040  0.86100  Biso   1.000  C
  C149     1.0000 0.04350  0.47910  0.69030  Biso   1.000  C
  C150     1.0000 0.05820  0.54660  0.64840  Biso   1.000  C
  C151     1.0000 0.75420  0.86100  0.36040  Biso   1.000  C
  C152     1.0000 0.78710  0.69030  0.47910  Biso   1.000  C
  C153     1.0000 0.74680  0.64840  0.54660  Biso   1.000  C
  C154     1.0000 0.36040  0.02440  0.75420  Biso   1.000  C
  C155     1.0000 0.47910  0.04350  0.78710  Biso   1.000  C
  C156     1.0000 0.54660  0.05820  0.74680  Biso   1.000  C
  C157     1.0000 0.02440  0.75420  0.36040  Biso   1.000  C
  C158     1.0000 0.04350  0.78710  0.47910  Biso   1.000  C
  C159     1.0000 0.05820  0.74680  0.54660  Biso   1.000  C
  C160     1.0000 0.86100  0.36040  0.75420  Biso   1.000  C
  C161     1.0000 0.69030  0.47910  0.78710  Biso   1.000  C
  C162     1.0000 0.64840  0.54660  0.74680  Biso   1.000  C
  C163     1.0000 0.36040  0.86100  0.02440  Biso   1.000  C
  C164     1.0000 0.47910  0.69030  0.04350  Biso   1.000  C
  C165     1.0000 0.54660  0.64840  0.05820  Biso   1.000  C
  C166     1.0000 0.75420  0.02440  0.86100  Biso   1.000  C
  C167     1.0000 0.78710  0.04350  0.69030  Biso   1.000  C
  C168     1.0000 0.74680  0.05820  0.64840  Biso   1.000  C
  C169     1.0000 0.86370  0.25630  0.86370  Biso   1.000  C
  C170     1.0000 0.76390  0.41210  0.76390  Biso   1.000  C
  C171     1.0000 0.25630  0.86370  0.01630  Biso   1.000  C
  C172     1.0000 0.41210  0.76390  0.06010  Biso   1.000  C
  C173     1.0000 0.86370  0.01630  0.86370  Biso   1.000  C
  C174     1.0000 0.76390  0.06010  0.76390  Biso   1.000  C
  C175     1.0000 0.01630  0.86370  0.25630  Biso   1.000  C
  C176     1.0000 0.06010  0.76390  0.41210  Biso   1.000  C
  C177     1.0000 0.86370  0.86370  0.01630  Biso   1.000  C
  C178     1.0000 0.76390  0.76390  0.06010  Biso   1.000  C
  C179     1.0000 0.25630  0.01630  0.86370  Biso   1.000  C
  C180     1.0000 0.41210  0.06010  0.76390  Biso   1.000  C
  C181     1.0000 0.86370  0.86370  0.25630  Biso   1.000  C
  C182     1.0000 0.76390  0.76390  0.41210  Biso   1.000  C
  C183     1.0000 0.01630  0.25630  0.86370  Biso   1.000  C
  C184     1.0000 0.06010  0.41210  0.76390  Biso   1.000  C
  C185     1.0000 0.86370  0.01630  0.25630  Biso   1.000  C
  C186     1.0000 0.76390  0.06010  0.41210  Biso   1.000  C
  C187     1.0000 0.25630  0.86370  0.86370  Biso   1.000  C
  C188     1.0000 0.41210  0.76390  0.76390  Biso   1.000  C
  C189     1.0000 0.86370  0.25630  0.01630  Biso   1.000  C
  C190     1.0000 0.76390  0.41210  0.06010  Biso   1.000  C
  C191     1.0000 0.01630  0.86370  0.86370  Biso   1.000  C
  C192     1.0000 0.06010  0.76390  0.76390  Biso   1.000  C
  C193     1.0000 0.74370  0.13630  0.13630  Biso   1.000  C
  C194     1.0000 0.58790  0.23610  0.23610  Biso   1.000  C
  C195     1.0000 0.13630  0.74370  0.98370  Biso   1.000  C
  C196     1.0000 0.23610  0.58790  0.93990  Biso   1.000  C
  C197     1.0000 0.98370  0.13630  0.13630  Biso   1.000  C
  C198     1.0000 0.93990  0.23610  0.23610  Biso   1.000  C
  C199     1.0000 0.13630  0.98370  0.74370  Biso   1.000  C
  C200     1.0000 0.23610  0.93990  0.58790  Biso   1.000  C
  C201     1.0000 0.13630  0.13630  0.98370  Biso   1.000  C
  C202     1.0000 0.23610  0.23610  0.93990  Biso   1.000  C
  C203     1.0000 0.98370  0.74370  0.13630  Biso   1.000  C
  C204     1.0000 0.93990  0.58790  0.23610  Biso   1.000  C
  C205     1.0000 0.13630  0.13630  0.74370  Biso   1.000  C
  C206     1.0000 0.23610  0.23610  0.58790  Biso   1.000  C
  C207     1.0000 0.74370  0.98370  0.13630  Biso   1.000  C
  C208     1.0000 0.58790  0.93990  0.23610  Biso   1.000  C
  C209     1.0000 0.98370  0.13630  0.74370  Biso   1.000  C
  C210     1.0000 0.93990  0.23610  0.58790  Biso   1.000  C
  C211     1.0000 0.13630  0.74370  0.13630  Biso   1.000  C
  C212     1.0000 0.23610  0.58790  0.23610  Biso   1.000  C
  C213     1.0000 0.74370  0.13630  0.98370  Biso   1.000  C
  C214     1.0000 0.58790  0.23610  0.93990  Biso   1.000  C
  C215     1.0000 0.13630  0.98370  0.13630  Biso   1.000  C
  C216     1.0000 0.23610  0.93990  0.23610  Biso   1.000  C
  C217     1.0000 0.72600  0.61820  0.61820  Biso   1.000  C
  C218     1.0000 0.61820  0.72600  0.03760  Biso   1.000  C
  C219     1.0000 0.61820  0.03760  0.72600  Biso   1.000  C
  C220     1.0000 0.03760  0.61820  0.61820  Biso   1.000  C
  C221     1.0000 0.72600  0.61820  0.03760  Biso   1.000  C
  C222     1.0000 0.61820  0.03760  0.61820  Biso   1.000  C
  C223     1.0000 0.61820  0.72600  0.61820  Biso   1.000  C
  C224     1.0000 0.03760  0.61820  0.72600  Biso   1.000  C
  C225     1.0000 0.72600  0.03760  0.61820  Biso   1.000  C
  C226     1.0000 0.61820  0.61820  0.72600  Biso   1.000  C
  C227     1.0000 0.61820  0.61820  0.03760  Biso   1.000  C
  C228     1.0000 0.03760  0.72600  0.61820  Biso   1.000  C
  C229     1.0000 0.38180  0.27400  0.38180  Biso   1.000  C
  C230     1.0000 0.27400  0.38180  0.96240  Biso   1.000  C
  C231     1.0000 0.96240  0.38180  0.27400  Biso   1.000  C
  C232     1.0000 0.38180  0.96240  0.38180  Biso   1.000  C
  C233     1.0000 0.38180  0.27400  0.96240  Biso   1.000  C
  C234     1.0000 0.96240  0.38180  0.38180  Biso   1.000  C
  C235     1.0000 0.27400  0.38180  0.38180  Biso   1.000  C
  C236     1.0000 0.38180  0.96240  0.27400  Biso   1.000  C
  C237     1.0000 0.96240  0.27400  0.38180  Biso   1.000  C
  C238     1.0000 0.38180  0.38180  0.27400  Biso   1.000  C
  C239     1.0000 0.38180  0.38180  0.96240  Biso   1.000  C
  C240     1.0000 0.27400  0.96240  0.38180  Biso   1.000  C
  C241     1.0000 0.78359  0.28535  0.91887  Biso   1.000  C
  C242     1.0000 0.80584  0.30632  0.87082  Biso   1.000  C
  C243     1.0000 0.78364  0.34680  0.84686  Biso   1.000  C
  C244     1.0000 0.76176  0.49892  0.70494  Biso   1.000  C
  C245     1.0000 0.73829  0.53895  0.67965  Biso   1.000  C
  C246     1.0000 0.28535  0.78359  0.01219  Biso   1.000  C
  C247     1.0000 0.30632  0.80584  0.01702  Biso   1.000  C
  C248     1.0000 0.34680  0.78364  0.02270  Biso   1.000  C
  C249     1.0000 0.49892  0.76176  0.03438  Biso   1.000  C
  C250     1.0000 0.53895  0.73829  0.04311  Biso   1.000  C
  C251     1.0000 0.91887  0.01219  0.78359  Biso   1.000  C
  C252     1.0000 0.87082  0.01702  0.80584  Biso   1.000  C
  C253     1.0000 0.84686  0.02270  0.78364  Biso   1.000  C
  C254     1.0000 0.70494  0.03438  0.76176  Biso   1.000  C
  C255     1.0000 0.67965  0.04311  0.73829  Biso   1.000  C
  C256     1.0000 0.01219  0.91887  0.28535  Biso   1.000  C
  C257     1.0000 0.01702  0.87082  0.30632  Biso   1.000  C
  C258     1.0000 0.02270  0.84686  0.34680  Biso   1.000  C
  C259     1.0000 0.03438  0.70494  0.49892  Biso   1.000  C
  C260     1.0000 0.04311  0.67965  0.53895  Biso   1.000  C
  C261     1.0000 0.78359  0.91887  0.01219  Biso   1.000  C
  C262     1.0000 0.80584  0.87082  0.01702  Biso   1.000  C
  C263     1.0000 0.78364  0.84686  0.02270  Biso   1.000  C
  C264     1.0000 0.76176  0.70494  0.03438  Biso   1.000  C
  C265     1.0000 0.73829  0.67965  0.04311  Biso   1.000  C
  C266     1.0000 0.28535  0.01219  0.91887  Biso   1.000  C
  C267     1.0000 0.30632  0.01702  0.87082  Biso   1.000  C
  C268     1.0000 0.34680  0.02270  0.84686  Biso   1.000  C
  C269     1.0000 0.49892  0.03438  0.70494  Biso   1.000  C
  C270     1.0000 0.53895  0.04311  0.67965  Biso   1.000  C
  C271     1.0000 0.91887  0.78359  0.28535  Biso   1.000  C
  C272     1.0000 0.87082  0.80584  0.30632  Biso   1.000  C
  C273     1.0000 0.84686  0.78364  0.34680  Biso   1.000  C
  C274     1.0000 0.70494  0.76176  0.49892  Biso   1.000  C
  C275     1.0000 0.67965  0.73829  0.53895  Biso   1.000  C
  C276     1.0000 0.01219  0.28535  0.78359  Biso   1.000  C
  C277     1.0000 0.01702  0.30632  0.80584  Biso   1.000  C
  C278     1.0000 0.02270  0.34680  0.78364  Biso   1.000  C
  C279     1.0000 0.03438  0.49892  0.76176  Biso   1.000  C
  C280     1.0000 0.04311  0.53895  0.73829  Biso   1.000  C
  C281     1.0000 0.78359  0.01219  0.28535  Biso   1.000  C
  C282     1.0000 0.80584  0.01702  0.30632  Biso   1.000  C
  C283     1.0000 0.78364  0.02270  0.34680  Biso   1.000  C
  C284     1.0000 0.76176  0.03438  0.49892  Biso   1.000  C
  C285     1.0000 0.73829  0.04311  0.53895  Biso   1.000  C
  C286     1.0000 0.28535  0.91887  0.78359  Biso   1.000  C
  C287     1.0000 0.30632  0.87082  0.80584  Biso   1.000  C
  C288     1.0000 0.34680  0.84686  0.78364  Biso   1.000  C
  C289     1.0000 0.49892  0.70494  0.76176  Biso   1.000  C
  C290     1.0000 0.53895  0.67965  0.73829  Biso   1.000  C
  C291     1.0000 0.91887  0.28535  0.01219  Biso   1.000  C
  C292     1.0000 0.87082  0.30632  0.01702  Biso   1.000  C
  C293     1.0000 0.84686  0.34680  0.02270  Biso   1.000  C
  C294     1.0000 0.70494  0.49892  0.03438  Biso   1.000  C
  C295     1.0000 0.67965  0.53895  0.04311  Biso   1.000  C
  C296     1.0000 0.01219  0.78359  0.91887  Biso   1.000  C
  C297     1.0000 0.01702  0.80584  0.87082  Biso   1.000  C
  C298     1.0000 0.02270  0.78364  0.84686  Biso   1.000  C
  C299     1.0000 0.03438  0.76176  0.70494  Biso   1.000  C
  C300     1.0000 0.04311  0.73829  0.67965  Biso   1.000  C
  C301     1.0000 0.71465  0.21641  0.08113  Biso   1.000  C
  C302     1.0000 0.69368  0.19416  0.12918  Biso   1.000  C
  C303     1.0000 0.65320  0.21636  0.15314  Biso   1.000  C
  C304     1.0000 0.50108  0.23824  0.29506  Biso   1.000  C
  C305     1.0000 0.46105  0.26171  0.32035  Biso   1.000  C
  C306     1.0000 0.21641  0.71465  0.98781  Biso   1.000  C
  C307     1.0000 0.19416  0.69368  0.98298  Biso   1.000  C
  C308     1.0000 0.21636  0.65320  0.97730  Biso   1.000  C
  C309     1.0000 0.23824  0.50108  0.96562  Biso   1.000  C
  C310     1.0000 0.26171  0.46105  0.95689  Biso   1.000  C
  C311     1.0000 0.98781  0.08113  0.21641  Biso   1.000  C
  C312     1.0000 0.98298  0.12918  0.19416  Biso   1.000  C
  C313     1.0000 0.97730  0.15314  0.21636  Biso   1.000  C
  C314     1.0000 0.96562  0.29506  0.23824  Biso   1.000  C
  C315     1.0000 0.95689  0.32035  0.26171  Biso   1.000  C
  C316     1.0000 0.08113  0.98781  0.71465  Biso   1.000  C
  C317     1.0000 0.12918  0.98298  0.69368  Biso   1.000  C
  C318     1.0000 0.15314  0.97730  0.65320  Biso   1.000  C
  C319     1.0000 0.29506  0.96562  0.50108  Biso   1.000  C
  C320     1.0000 0.32035  0.95689  0.46105  Biso   1.000  C
  C321     1.0000 0.08113  0.21641  0.98781  Biso   1.000  C
  C322     1.0000 0.12918  0.19416  0.98298  Biso   1.000  C
  C323     1.0000 0.15314  0.21636  0.97730  Biso   1.000  C
  C324     1.0000 0.29506  0.23824  0.96562  Biso   1.000  C
  C325     1.0000 0.32035  0.26171  0.95689  Biso   1.000  C
  C326     1.0000 0.98781  0.71465  0.08113  Biso   1.000  C
  C327     1.0000 0.98298  0.69368  0.12918  Biso   1.000  C
  C328     1.0000 0.97730  0.65320  0.15314  Biso   1.000  C
  C329     1.0000 0.96562  0.50108  0.29506  Biso   1.000  C
  C330     1.0000 0.95689  0.46105  0.32035  Biso   1.000  C
  C331     1.0000 0.21641  0.08113  0.71465  Biso   1.000  C
  C332     1.0000 0.19416  0.12918  0.69368  Biso   1.000  C
  C333     1.0000 0.21636  0.15314  0.65320  Biso   1.000  C
  C334     1.0000 0.23824  0.29506  0.50108  Biso   1.000  C
  C335     1.0000 0.26171  0.32035  0.46105  Biso   1.000  C
  C336     1.0000 0.71465  0.98781  0.21641  Biso   1.000  C
  C337     1.0000 0.69368  0.98298  0.19416  Biso   1.000  C
  C338     1.0000 0.65320  0.97730  0.21636  Biso   1.000  C
  C339     1.0000 0.50108  0.96562  0.23824  Biso   1.000  C
  C340     1.0000 0.46105  0.95689  0.26171  Biso   1.000  C
  C341     1.0000 0.98781  0.21641  0.71465  Biso   1.000  C
  C342     1.0000 0.98298  0.19416  0.69368  Biso   1.000  C
  C343     1.0000 0.97730  0.21636  0.65320  Biso   1.000  C
  C344     1.0000 0.96562  0.23824  0.50108  Biso   1.000  C
  C345     1.0000 0.95689  0.26171  0.46105  Biso   1.000  C
  C346     1.0000 0.08113  0.71465  0.21641  Biso   1.000  C
  C347     1.0000 0.12918  0.69368  0.19416  Biso   1.000  C
  C348     1.0000 0.15314  0.65320  0.21636  Biso   1.000  C
  C349     1.0000 0.29506  0.50108  0.23824  Biso   1.000  C
  C350     1.0000 0.32035  0.46105  0.26171  Biso   1.000  C
  C351     1.0000 0.71465  0.08113  0.98781  Biso   1.000  C
  C352     1.0000 0.69368  0.12918  0.98298  Biso   1.000  C
  C353     1.0000 0.65320  0.15314  0.97730  Biso   1.000  C
  C354     1.0000 0.50108  0.29506  0.96562  Biso   1.000  C
  C355     1.0000 0.46105  0.32035  0.95689  Biso   1.000  C
  C356     1.0000 0.21641  0.98781  0.08113  Biso   1.000  C
  C357     1.0000 0.19416  0.98298  0.12918  Biso   1.000  C
  C358     1.0000 0.21636  0.97730  0.15314  Biso   1.000  C
  C359     1.0000 0.23824  0.96562  0.29506  Biso   1.000  C
  C360     1.0000 0.26171  0.95689  0.32035  Biso   1.000  C
  C361     1.0000 0.21641  0.71465  0.08113  Biso   1.000  C
  C362     1.0000 0.19416  0.69368  0.12918  Biso   1.000  C
  C363     1.0000 0.21636  0.65320  0.15314  Biso   1.000  C
  C364     1.0000 0.23824  0.50108  0.29506  Biso   1.000  C
  C365     1.0000 0.26171  0.46105  0.32035  Biso   1.000  C
  C366     1.0000 0.71465  0.21641  0.98781  Biso   1.000  C
  C367     1.0000 0.69368  0.19416  0.98298  Biso   1.000  C
  C368     1.0000 0.65320  0.21636  0.97730  Biso   1.000  C
  C369     1.0000 0.50108  0.23824  0.96562  Biso   1.000  C
  C370     1.0000 0.46105  0.26171  0.95689  Biso   1.000  C
  C371     1.0000 0.08113  0.98781  0.21641  Biso   1.000  C
  C372     1.0000 0.12918  0.98298  0.19416  Biso   1.000  C
  C373     1.0000 0.15314  0.97730  0.21636  Biso   1.000  C
  C374     1.0000 0.29506  0.96562  0.23824  Biso   1.000  C
  C375     1.0000 0.32035  0.95689  0.26171  Biso   1.000  C
  C376     1.0000 0.98781  0.08113  0.71465  Biso   1.000  C
  C377     1.0000 0.98298  0.12918  0.69368  Biso   1.000  C
  C378     1.0000 0.97730  0.15314  0.65320  Biso   1.000  C
  C379     1.0000 0.96562  0.29506  0.50108  Biso   1.000  C
  C380     1.0000 0.95689  0.32035  0.46105  Biso   1.000  C
  C381     1.0000 0.21641  0.08113  0.98781  Biso   1.000  C
  C382     1.0000 0.19416  0.12918  0.98298  Biso   1.000  C
  C383     1.0000 0.21636  0.15314  0.97730  Biso   1.000  C
  C384     1.0000 0.23824  0.29506  0.96562  Biso   1.000  C
  C385     1.0000 0.26171  0.32035  0.95689  Biso   1.000  C
  C386     1.0000 0.71465  0.98781  0.08113  Biso   1.000  C
  C387     1.0000 0.69368  0.98298  0.12918  Biso   1.000  C
  C388     1.0000 0.65320  0.97730  0.15314  Biso   1.000  C
  C389     1.0000 0.50108  0.96562  0.29506  Biso   1.000  C
  C390     1.0000 0.46105  0.95689  0.32035  Biso   1.000  C
  C391     1.0000 0.08113  0.21641  0.71465  Biso   1.000  C
  C392     1.0000 0.12918  0.19416  0.69368  Biso   1.000  C
  C393     1.0000 0.15314  0.21636  0.65320  Biso   1.000  C
  C394     1.0000 0.29506  0.23824  0.50108  Biso   1.000  C
  C395     1.0000 0.32035  0.26171  0.46105  Biso   1.000  C
  C396     1.0000 0.98781  0.71465  0.21641  Biso   1.000  C
  C397     1.0000 0.98298  0.69368  0.19416  Biso   1.000  C
  C398     1.0000 0.97730  0.65320  0.21636  Biso   1.000  C
  C399     1.0000 0.96562  0.50108  0.23824  Biso   1.000  C
  C400     1.0000 0.95689  0.46105  0.26171  Biso   1.000  C
  C401     1.0000 0.21641  0.98781  0.71465  Biso   1.000  C
  C402     1.0000 0.19416  0.98298  0.69368  Biso   1.000  C
  C403     1.0000 0.21636  0.97730  0.65320  Biso   1.000  C
  C404     1.0000 0.23824  0.96562  0.50108  Biso   1.000  C
  C405     1.0000 0.26171  0.95689  0.46105  Biso   1.000  C
  C406     1.0000 0.71465  0.08113  0.21641  Biso   1.000  C
  C407     1.0000 0.69368  0.12918  0.19416  Biso   1.000  C
  C408     1.0000 0.65320  0.15314  0.21636  Biso   1.000  C
  C409     1.0000 0.50108  0.29506  0.23824  Biso   1.000  C
  C410     1.0000 0.46105  0.32035  0.26171  Biso   1.000  C
  C411     1.0000 0.08113  0.71465  0.98781  Biso   1.000  C
  C412     1.0000 0.12918  0.69368  0.98298  Biso   1.000  C
  C413     1.0000 0.15314  0.65320  0.97730  Biso   1.000  C
  C414     1.0000 0.29506  0.50108  0.96562  Biso   1.000  C
  C415     1.0000 0.32035  0.46105  0.95689  Biso   1.000  C
  C416     1.0000 0.98781  0.21641  0.08113  Biso   1.000  C
  C417     1.0000 0.98298  0.19416  0.12918  Biso   1.000  C
  C418     1.0000 0.97730  0.21636  0.15314  Biso   1.000  C
  C419     1.0000 0.96562  0.23824  0.29506  Biso   1.000  C
  C420     1.0000 0.95689  0.26171  0.32035  Biso   1.000  C
  C421     1.0000 0.28535  0.78359  0.91887  Biso   1.000  C
  C422     1.0000 0.30632  0.80584  0.87082  Biso   1.000  C
  C423     1.0000 0.34680  0.78364  0.84686  Biso   1.000  C
  C424     1.0000 0.49892  0.76176  0.70494  Biso   1.000  C
  C425     1.0000 0.53895  0.73829  0.67965  Biso   1.000  C
  C426     1.0000 0.78359  0.28535  0.01219  Biso   1.000  C
  C427     1.0000 0.80584  0.30632  0.01702  Biso   1.000  C
  C428     1.0000 0.78364  0.34680  0.02270  Biso   1.000  C
  C429     1.0000 0.76176  0.49892  0.03438  Biso   1.000  C
  C430     1.0000 0.73829  0.53895  0.04311  Biso   1.000  C
  C431     1.0000 0.01219  0.91887  0.78359  Biso   1.000  C
  C432     1.0000 0.01702  0.87082  0.80584  Biso   1.000  C
  C433     1.0000 0.02270  0.84686  0.78364  Biso   1.000  C
  C434     1.0000 0.03438  0.70494  0.76176  Biso   1.000  C
  C435     1.0000 0.04311  0.67965  0.73829  Biso   1.000  C
  C436     1.0000 0.91887  0.01219  0.28535  Biso   1.000  C
  C437     1.0000 0.87082  0.01702  0.30632  Biso   1.000  C
  C438     1.0000 0.84686  0.02270  0.34680  Biso   1.000  C
  C439     1.0000 0.70494  0.03438  0.49892  Biso   1.000  C
  C440     1.0000 0.67965  0.04311  0.53895  Biso   1.000  C
  C441     1.0000 0.91887  0.78359  0.01219  Biso   1.000  C
  C442     1.0000 0.87082  0.80584  0.01702  Biso   1.000  C
  C443     1.0000 0.84686  0.78364  0.02270  Biso   1.000  C
  C444     1.0000 0.70494  0.76176  0.03438  Biso   1.000  C
  C445     1.0000 0.67965  0.73829  0.04311  Biso   1.000  C
  C446     1.0000 0.01219  0.28535  0.91887  Biso   1.000  C
  C447     1.0000 0.01702  0.30632  0.87082  Biso   1.000  C
  C448     1.0000 0.02270  0.34680  0.84686  Biso   1.000  C
  C449     1.0000 0.03438  0.49892  0.70494  Biso   1.000  C
  C450     1.0000 0.04311  0.53895  0.67965  Biso   1.000  C
  C451     1.0000 0.78359  0.91887  0.28535  Biso   1.000  C
  C452     1.0000 0.80584  0.87082  0.30632  Biso   1.000  C
  C453     1.0000 0.78364  0.84686  0.34680  Biso   1.000  C
  C454     1.0000 0.76176  0.70494  0.49892  Biso   1.000  C
  C455     1.0000 0.73829  0.67965  0.53895  Biso   1.000  C
  C456     1.0000 0.28535  0.01219  0.78359  Biso   1.000  C
  C457     1.0000 0.30632  0.01702  0.80584  Biso   1.000  C
  C458     1.0000 0.34680  0.02270  0.78364  Biso   1.000  C
  C459     1.0000 0.49892  0.03438  0.76176  Biso   1.000  C
  C460     1.0000 0.53895  0.04311  0.73829  Biso   1.000  C
  C461     1.0000 0.01219  0.78359  0.28535  Biso   1.000  C
  C462     1.0000 0.01702  0.80584  0.30632  Biso   1.000  C
  C463     1.0000 0.02270  0.78364  0.34680  Biso   1.000  C
  C464     1.0000 0.03438  0.76176  0.49892  Biso   1.000  C
  C465     1.0000 0.04311  0.73829  0.53895  Biso   1.000  C
  C466     1.0000 0.91887  0.28535  0.78359  Biso   1.000  C
  C467     1.0000 0.87082  0.30632  0.80584  Biso   1.000  C
  C468     1.0000 0.84686  0.34680  0.78364  Biso   1.000  C
  C469     1.0000 0.70494  0.49892  0.76176  Biso   1.000  C
  C470     1.0000 0.67965  0.53895  0.73829  Biso   1.000  C
  C471     1.0000 0.28535  0.91887  0.01219  Biso   1.000  C
  C472     1.0000 0.30632  0.87082  0.01702  Biso   1.000  C
  C473     1.0000 0.34680  0.84686  0.02270  Biso   1.000  C
  C474     1.0000 0.49892  0.70494  0.03438  Biso   1.000  C
  C475     1.0000 0.53895  0.67965  0.04311  Biso   1.000  C
  C476     1.0000 0.78359  0.01219  0.91887  Biso   1.000  C
  C477     1.0000 0.80584  0.01702  0.87082  Biso   1.000  C
  C478     1.0000 0.78364  0.02270  0.84686  Biso   1.000  C
  C479     1.0000 0.76176  0.03438  0.70494  Biso   1.000  C
  C480     1.0000 0.73829  0.04311  0.67965  Biso   1.000  C
  C481     1.0000 0.84909  0.28511  0.84909  Biso   1.000  C
  C482     1.0000 0.80289  0.36835  0.80289  Biso   1.000  C
  C483     1.0000 0.77610  0.44774  0.77610  Biso   1.000  C
  C484     1.0000 0.74937  0.48847  0.74937  Biso   1.000  C
  C485     1.0000 0.70168  0.56836  0.70168  Biso   1.000  C
  C486     1.0000 0.67678  0.61366  0.67678  Biso   1.000  C
  C487     1.0000 0.28511  0.84909  0.01671  Biso   1.000  C
  C488     1.0000 0.36835  0.80289  0.02587  Biso   1.000  C
  C489     1.0000 0.44774  0.77610  0.00006  Biso   1.000  C
  C490     1.0000 0.48847  0.74937  0.01279  Biso   1.000  C
  C491     1.0000 0.56836  0.70168  0.02828  Biso   1.000  C
  C492     1.0000 0.61366  0.67678  0.03278  Biso   1.000  C
  C493     1.0000 0.84909  0.01671  0.84909  Biso   1.000  C
  C494     1.0000 0.80289  0.02587  0.80289  Biso   1.000  C
  C495     1.0000 0.77610  0.00006  0.77610  Biso   1.000  C
  C496     1.0000 0.74937  0.01279  0.74937  Biso   1.000  C
  C497     1.0000 0.70168  0.02828  0.70168  Biso   1.000  C
  C498     1.0000 0.67678  0.03278  0.67678  Biso   1.000  C
  C499     1.0000 0.01671  0.84909  0.28511  Biso   1.000  C
  C500     1.0000 0.02587  0.80289  0.36835  Biso   1.000  C
  C501     1.0000 0.00006  0.77610  0.44774  Biso   1.000  C
  C502     1.0000 0.01279  0.74937  0.48847  Biso   1.000  C
  C503     1.0000 0.02828  0.70168  0.56836  Biso   1.000  C
  C504     1.0000 0.03278  0.67678  0.61366  Biso   1.000  C
  C505     1.0000 0.84909  0.84909  0.01671  Biso   1.000  C
  C506     1.0000 0.80289  0.80289  0.02587  Biso   1.000  C
  C507     1.0000 0.77610  0.77610  0.00006  Biso   1.000  C
  C508     1.0000 0.74937  0.74937  0.01279  Biso   1.000  C
  C509     1.0000 0.70168  0.70168  0.02828  Biso   1.000  C
  C510     1.0000 0.67678  0.67678  0.03278  Biso   1.000  C
  C511     1.0000 0.28511  0.01671  0.84909  Biso   1.000  C
  C512     1.0000 0.36835  0.02587  0.80289  Biso   1.000  C
  C513     1.0000 0.44774  0.00006  0.77610  Biso   1.000  C
  C514     1.0000 0.48847  0.01279  0.74937  Biso   1.000  C
  C515     1.0000 0.56836  0.02828  0.70168  Biso   1.000  C
  C516     1.0000 0.61366  0.03278  0.67678  Biso   1.000  C
  C517     1.0000 0.84909  0.84909  0.28511  Biso   1.000  C
  C518     1.0000 0.80289  0.80289  0.36835  Biso   1.000  C
  C519     1.0000 0.77610  0.77610  0.44774  Biso   1.000  C
  C520     1.0000 0.74937  0.74937  0.48847  Biso   1.000  C
  C521     1.0000 0.70168  0.70168  0.56836  Biso   1.000  C
  C522     1.0000 0.67678  0.67678  0.61366  Biso   1.000  C
  C523     1.0000 0.01671  0.28511  0.84909  Biso   1.000  C
  C524     1.0000 0.02587  0.36835  0.80289  Biso   1.000  C
  C525     1.0000 0.00006  0.44774  0.77610  Biso   1.000  C
  C526     1.0000 0.01279  0.48847  0.74937  Biso   1.000  C
  C527     1.0000 0.02828  0.56836  0.70168  Biso   1.000  C
  C528     1.0000 0.03278  0.61366  0.67678  Biso   1.000  C
  C529     1.0000 0.84909  0.01671  0.28511  Biso   1.000  C
  C530     1.0000 0.80289  0.02587  0.36835  Biso   1.000  C
  C531     1.0000 0.77610  0.00006  0.44774  Biso   1.000  C
  C532     1.0000 0.74937  0.01279  0.48847  Biso   1.000  C
  C533     1.0000 0.70168  0.02828  0.56836  Biso   1.000  C
  C534     1.0000 0.67678  0.03278  0.61366  Biso   1.000  C
  C535     1.0000 0.28511  0.84909  0.84909  Biso   1.000  C
  C536     1.0000 0.36835  0.80289  0.80289  Biso   1.000  C
  C537     1.0000 0.44774  0.77610  0.77610  Biso   1.000  C
  C538     1.0000 0.48847  0.74937  0.74937  Biso   1.000  C
  C539     1.0000 0.56836  0.70168  0.70168  Biso   1.000  C
  C540     1.0000 0.61366  0.67678  0.67678  Biso   1.000  C
  C541     1.0000 0.84909  0.28511  0.01671  Biso   1.000  C
  C542     1.0000 0.80289  0.36835  0.02587  Biso   1.000  C
  C543     1.0000 0.77610  0.44774  0.00006  Biso   1.000  C
  C544     1.0000 0.74937  0.48847  0.01279  Biso   1.000  C
  C545     1.0000 0.70168  0.56836  0.02828  Biso   1.000  C
  C546     1.0000 0.67678  0.61366  0.03278  Biso   1.000  C
  C547     1.0000 0.01671  0.84909  0.84909  Biso   1.000  C
  C548     1.0000 0.02587  0.80289  0.80289  Biso   1.000  C
  C549     1.0000 0.00006  0.77610  0.77610  Biso   1.000  C
  C550     1.0000 0.01279  0.74937  0.74937  Biso   1.000  C
  C551     1.0000 0.02828  0.70168  0.70168  Biso   1.000  C
  C552     1.0000 0.03278  0.67678  0.67678  Biso   1.000  C
  C553     1.0000 0.71489  0.15091  0.15091  Biso   1.000  C
  C554     1.0000 0.63165  0.19711  0.19711  Biso   1.000  C
  C555     1.0000 0.55226  0.22390  0.22390  Biso   1.000  C
  C556     1.0000 0.51153  0.25063  0.25063  Biso   1.000  C
  C557     1.0000 0.43164  0.29832  0.29832  Biso   1.000  C
  C558     1.0000 0.38634  0.32322  0.32322  Biso   1.000  C
  C559     1.0000 0.15091  0.71489  0.98329  Biso   1.000  C
  C560     1.0000 0.19711  0.63165  0.97413  Biso   1.000  C
  C561     1.0000 0.22390  0.55226  0.99994  Biso   1.000  C
  C562     1.0000 0.25063  0.51153  0.98721  Biso   1.000  C
  C563     1.0000 0.29832  0.43164  0.97172  Biso   1.000  C
  C564     1.0000 0.32322  0.38634  0.96722  Biso   1.000  C
  C565     1.0000 0.98329  0.15091  0.15091  Biso   1.000  C
  C566     1.0000 0.97413  0.19711  0.19711  Biso   1.000  C
  C567     1.0000 0.99994  0.22390  0.22390  Biso   1.000  C
  C568     1.0000 0.98721  0.25063  0.25063  Biso   1.000  C
  C569     1.0000 0.97172  0.29832  0.29832  Biso   1.000  C
  C570     1.0000 0.96722  0.32322  0.32322  Biso   1.000  C
  C571     1.0000 0.15091  0.98329  0.71489  Biso   1.000  C
  C572     1.0000 0.19711  0.97413  0.63165  Biso   1.000  C
  C573     1.0000 0.22390  0.99994  0.55226  Biso   1.000  C
  C574     1.0000 0.25063  0.98721  0.51153  Biso   1.000  C
  C575     1.0000 0.29832  0.97172  0.43164  Biso   1.000  C
  C576     1.0000 0.32322  0.96722  0.38634  Biso   1.000  C
  C577     1.0000 0.15091  0.15091  0.98329  Biso   1.000  C
  C578     1.0000 0.19711  0.19711  0.97413  Biso   1.000  C
  C579     1.0000 0.22390  0.22390  0.99994  Biso   1.000  C
  C580     1.0000 0.25063  0.25063  0.98721  Biso   1.000  C
  C581     1.0000 0.29832  0.29832  0.97172  Biso   1.000  C
  C582     1.0000 0.32322  0.32322  0.96722  Biso   1.000  C
  C583     1.0000 0.98329  0.71489  0.15091  Biso   1.000  C
  C584     1.0000 0.97413  0.63165  0.19711  Biso   1.000  C
  C585     1.0000 0.99994  0.55226  0.22390  Biso   1.000  C
  C586     1.0000 0.98721  0.51153  0.25063  Biso   1.000  C
  C587     1.0000 0.97172  0.43164  0.29832  Biso   1.000  C
  C588     1.0000 0.96722  0.38634  0.32322  Biso   1.000  C
  C589     1.0000 0.15091  0.15091  0.71489  Biso   1.000  C
  C590     1.0000 0.19711  0.19711  0.63165  Biso   1.000  C
  C591     1.0000 0.22390  0.22390  0.55226  Biso   1.000  C
  C592     1.0000 0.25063  0.25063  0.51153  Biso   1.000  C
  C593     1.0000 0.29832  0.29832  0.43164  Biso   1.000  C
  C594     1.0000 0.32322  0.32322  0.38634  Biso   1.000  C
  C595     1.0000 0.71489  0.98329  0.15091  Biso   1.000  C
  C596     1.0000 0.63165  0.97413  0.19711  Biso   1.000  C
  C597     1.0000 0.55226  0.99994  0.22390  Biso   1.000  C
  C598     1.0000 0.51153  0.98721  0.25063  Biso   1.000  C
  C599     1.0000 0.43164  0.97172  0.29832  Biso   1.000  C
  C600     1.0000 0.38634  0.96722  0.32322  Biso   1.000  C
  C601     1.0000 0.98329  0.15091  0.71489  Biso   1.000  C
  C602     1.0000 0.97413  0.19711  0.63165  Biso   1.000  C
  C603     1.0000 0.99994  0.22390  0.55226  Biso   1.000  C
  C604     1.0000 0.98721  0.25063  0.51153  Biso   1.000  C
  C605     1.0000 0.97172  0.29832  0.43164  Biso   1.000  C
  C606     1.0000 0.96722  0.32322  0.38634  Biso   1.000  C
  C607     1.0000 0.15091  0.71489  0.15091  Biso   1.000  C
  C608     1.0000 0.19711  0.63165  0.19711  Biso   1.000  C
  C609     1.0000 0.22390  0.55226  0.22390  Biso   1.000  C
  C610     1.0000 0.25063  0.51153  0.25063  Biso   1.000  C
  C611     1.0000 0.29832  0.43164  0.29832  Biso   1.000  C
  C612     1.0000 0.32322  0.38634  0.32322  Biso   1.000  C
  C613     1.0000 0.71489  0.15091  0.98329  Biso   1.000  C
  C614     1.0000 0.63165  0.19711  0.97413  Biso   1.000  C
  C615     1.0000 0.55226  0.22390  0.99994  Biso   1.000  C
  C616     1.0000 0.51153  0.25063  0.98721  Biso   1.000  C
  C617     1.0000 0.43164  0.29832  0.97172  Biso   1.000  C
  C618     1.0000 0.38634  0.32322  0.96722  Biso   1.000  C
  C619     1.0000 0.15091  0.98329  0.15091  Biso   1.000  C
  C620     1.0000 0.19711  0.97413  0.19711  Biso   1.000  C
  C621     1.0000 0.22390  0.99994  0.22390  Biso   1.000  C
  C622     1.0000 0.25063  0.98721  0.25063  Biso   1.000  C
  C623     1.0000 0.29832  0.97172  0.29832  Biso   1.000  C
  C624     1.0000 0.32322  0.96722  0.32322  Biso   1.000  C
  C625     1.0000 0.69809  0.63351  0.63351  Biso   1.000  C
  C626     1.0000 0.63351  0.69809  0.03489  Biso   1.000  C
  C627     1.0000 0.63351  0.03489  0.69809  Biso   1.000  C
  C628     1.0000 0.03489  0.63351  0.63351  Biso   1.000  C
  C629     1.0000 0.69809  0.63351  0.03489  Biso   1.000  C
  C630     1.0000 0.63351  0.03489  0.63351  Biso   1.000  C
  C631     1.0000 0.63351  0.69809  0.63351  Biso   1.000  C
  C632     1.0000 0.03489  0.63351  0.69809  Biso   1.000  C
  C633     1.0000 0.69809  0.03489  0.63351  Biso   1.000  C
  C634     1.0000 0.63351  0.63351  0.69809  Biso   1.000  C
  C635     1.0000 0.63351  0.63351  0.03489  Biso   1.000  C
  C636     1.0000 0.03489  0.69809  0.63351  Biso   1.000  C
  C637     1.0000 0.36649  0.30191  0.36649  Biso   1.000  C
  C638     1.0000 0.30191  0.36649  0.96511  Biso   1.000  C
  C639     1.0000 0.96511  0.36649  0.30191  Biso   1.000  C
  C640     1.0000 0.36649  0.96511  0.36649  Biso   1.000  C
  C641     1.0000 0.36649  0.30191  0.96511  Biso   1.000  C
  C642     1.0000 0.96511  0.36649  0.36649  Biso   1.000  C
  C643     1.0000 0.30191  0.36649  0.36649  Biso   1.000  C
  C644     1.0000 0.36649  0.96511  0.30191  Biso   1.000  C
  C645     1.0000 0.96511  0.30191  0.36649  Biso   1.000  C
  C646     1.0000 0.36649  0.36649  0.30191  Biso   1.000  C
  C647     1.0000 0.36649  0.36649  0.96511  Biso   1.000  C
  C648     1.0000 0.30191  0.96511  0.36649  Biso   1.000  C
  C649     1.0000 0.77757  0.41123  0.77757  Biso   1.000  C
  C650     1.0000 0.41123  0.77757  0.03363  Biso   1.000  C
  C651     1.0000 0.77757  0.03363  0.77757  Biso   1.000  C
  C652     1.0000 0.03363  0.77757  0.41123  Biso   1.000  C
  C653     1.0000 0.77757  0.77757  0.03363  Biso   1.000  C
  C654     1.0000 0.41123  0.03363  0.77757  Biso   1.000  C
  C655     1.0000 0.77757  0.77757  0.41123  Biso   1.000  C
  C656     1.0000 0.03363  0.41123  0.77757  Biso   1.000  C
  C657     1.0000 0.77757  0.03363  0.41123  Biso   1.000  C
  C658     1.0000 0.41123  0.77757  0.77757  Biso   1.000  C
  C659     1.0000 0.77757  0.41123  0.03363  Biso   1.000  C
  C660     1.0000 0.03363  0.77757  0.77757  Biso   1.000  C
  C661     1.0000 0.58877  0.22243  0.22243  Biso   1.000  C
  C662     1.0000 0.22243  0.58877  0.96637  Biso   1.000  C
  C663     1.0000 0.96637  0.22243  0.22243  Biso   1.000  C
  C664     1.0000 0.22243  0.96637  0.58877  Biso   1.000  C
  C665     1.0000 0.22243  0.22243  0.96637  Biso   1.000  C
  C666     1.0000 0.96637  0.58877  0.22243  Biso   1.000  C
  C667     1.0000 0.22243  0.22243  0.58877  Biso   1.000  C
  C668     1.0000 0.58877  0.96637  0.22243  Biso   1.000  C
  C669     1.0000 0.96637  0.22243  0.58877  Biso   1.000  C
  C670     1.0000 0.22243  0.58877  0.22243  Biso   1.000  C
  C671     1.0000 0.58877  0.22243  0.96637  Biso   1.000  C
  C672     1.0000 0.22243  0.96637  0.22243  Biso   1.000  C
  C673     1.0000 0.80614  0.24629  0.93709  Biso   1.000  C
  C674     1.0000 0.74554  0.30691  0.93747  Biso   1.000  C
  C675     1.0000 0.24630  0.80613  0.01048  Biso   1.000  C
  C676     1.0000 0.30691  0.74554  0.01008  Biso   1.000  C
  C677     1.0000 0.93710  0.01048  0.80613  Biso   1.000  C
  C678     1.0000 0.93748  0.01008  0.74553  Biso   1.000  C
  C679     1.0000 0.01049  0.93709  0.24629  Biso   1.000  C
  C680     1.0000 0.01008  0.93748  0.30691  Biso   1.000  C
  C681     1.0000 0.80614  0.93709  0.01048  Biso   1.000  C
  C682     1.0000 0.74554  0.93747  0.01008  Biso   1.000  C
  C683     1.0000 0.24630  0.01048  0.93709  Biso   1.000  C
  C684     1.0000 0.30692  0.01008  0.93747  Biso   1.000  C
  C685     1.0000 0.93710  0.80613  0.24629  Biso   1.000  C
  C686     1.0000 0.93747  0.74554  0.30691  Biso   1.000  C
  C687     1.0000 0.01049  0.24629  0.80613  Biso   1.000  C
  C688     1.0000 0.01009  0.30691  0.74553  Biso   1.000  C
  C689     1.0000 0.80614  0.01048  0.24629  Biso   1.000  C
  C690     1.0000 0.74554  0.01008  0.30691  Biso   1.000  C
  C691     1.0000 0.24630  0.93709  0.80613  Biso   1.000  C
  C692     1.0000 0.30691  0.93748  0.74553  Biso   1.000  C
  C693     1.0000 0.93710  0.24629  0.01048  Biso   1.000  C
  C694     1.0000 0.93747  0.30691  0.01008  Biso   1.000  C
  C695     1.0000 0.01049  0.80613  0.93709  Biso   1.000  C
  C696     1.0000 0.01008  0.74554  0.93747  Biso   1.000  C
  C697     1.0000 0.75370  0.19387  0.06291  Biso   1.000  C
  C698     1.0000 0.69308  0.25447  0.06253  Biso   1.000  C
  C699     1.0000 0.19386  0.75371  0.98952  Biso   1.000  C
  C700     1.0000 0.25446  0.69309  0.98992  Biso   1.000  C
  C701     1.0000 0.98951  0.06291  0.19387  Biso   1.000  C
  C702     1.0000 0.98992  0.06253  0.25446  Biso   1.000  C
  C703     1.0000 0.06290  0.98952  0.75371  Biso   1.000  C
  C704     1.0000 0.06253  0.98992  0.69309  Biso   1.000  C
  C705     1.0000 0.06290  0.19387  0.98952  Biso   1.000  C
  C706     1.0000 0.06252  0.25447  0.98992  Biso   1.000  C
  C707     1.0000 0.98951  0.75371  0.06291  Biso   1.000  C
  C708     1.0000 0.98991  0.69309  0.06253  Biso   1.000  C
  C709     1.0000 0.19386  0.06291  0.75371  Biso   1.000  C
  C710     1.0000 0.25446  0.06253  0.69309  Biso   1.000  C
  C711     1.0000 0.75370  0.98952  0.19387  Biso   1.000  C
  C712     1.0000 0.69309  0.98992  0.25446  Biso   1.000  C
  C713     1.0000 0.98951  0.19387  0.75371  Biso   1.000  C
  C714     1.0000 0.98991  0.25447  0.69309  Biso   1.000  C
  C715     1.0000 0.06290  0.75371  0.19387  Biso   1.000  C
  C716     1.0000 0.06253  0.69309  0.25446  Biso   1.000  C
  C717     1.0000 0.75370  0.06291  0.98952  Biso   1.000  C
  C718     1.0000 0.69309  0.06253  0.98992  Biso   1.000  C
  C719     1.0000 0.19386  0.98952  0.06291  Biso   1.000  C
  C720     1.0000 0.25447  0.98992  0.06252  Biso   1.000  C
  C721     1.0000 0.19386  0.75371  0.06291  Biso   1.000  C
  C722     1.0000 0.25446  0.69309  0.06253  Biso   1.000  C
  C723     1.0000 0.75370  0.19387  0.98952  Biso   1.000  C
  C724     1.0000 0.69308  0.25447  0.98992  Biso   1.000  C
  C725     1.0000 0.06290  0.98952  0.19387  Biso   1.000  C
  C726     1.0000 0.06253  0.98992  0.25446  Biso   1.000  C
  C727     1.0000 0.98951  0.06291  0.75371  Biso   1.000  C
  C728     1.0000 0.98991  0.06253  0.69309  Biso   1.000  C
  C729     1.0000 0.19386  0.06291  0.98952  Biso   1.000  C
  C730     1.0000 0.25446  0.06253  0.98992  Biso   1.000  C
  C731     1.0000 0.75370  0.98952  0.06291  Biso   1.000  C
  C732     1.0000 0.69308  0.98992  0.06253  Biso   1.000  C
  C733     1.0000 0.06290  0.19387  0.75371  Biso   1.000  C
  C734     1.0000 0.06252  0.25447  0.69309  Biso   1.000  C
  C735     1.0000 0.98951  0.75371  0.19387  Biso   1.000  C
  C736     1.0000 0.98991  0.69309  0.25447  Biso   1.000  C
  C737     1.0000 0.19386  0.98952  0.75371  Biso   1.000  C
  C738     1.0000 0.25446  0.98992  0.69309  Biso   1.000  C
  C739     1.0000 0.75370  0.06291  0.19387  Biso   1.000  C
  C740     1.0000 0.69309  0.06253  0.25446  Biso   1.000  C
  C741     1.0000 0.06290  0.75371  0.98952  Biso   1.000  C
  C742     1.0000 0.06253  0.69309  0.98992  Biso   1.000  C
  C743     1.0000 0.98951  0.19387  0.06291  Biso   1.000  C
  C744     1.0000 0.98991  0.25447  0.06253  Biso   1.000  C
  C745     1.0000 0.24630  0.80613  0.93709  Biso   1.000  C
  C746     1.0000 0.30691  0.74554  0.93747  Biso   1.000  C
  C747     1.0000 0.80614  0.24629  0.01048  Biso   1.000  C
  C748     1.0000 0.74554  0.30691  0.01008  Biso   1.000  C
  C749     1.0000 0.01049  0.93709  0.80613  Biso   1.000  C
  C750     1.0000 0.01008  0.93748  0.74553  Biso   1.000  C
  C751     1.0000 0.93710  0.01048  0.24629  Biso   1.000  C
  C752     1.0000 0.93748  0.01008  0.30691  Biso   1.000  C
  C753     1.0000 0.93710  0.80613  0.01048  Biso   1.000  C
  C754     1.0000 0.93747  0.74554  0.01008  Biso   1.000  C
  C755     1.0000 0.01049  0.24629  0.93709  Biso   1.000  C
  C756     1.0000 0.01009  0.30691  0.93747  Biso   1.000  C
  C757     1.0000 0.80614  0.93709  0.24629  Biso   1.000  C
  C758     1.0000 0.74554  0.93747  0.30691  Biso   1.000  C
  C759     1.0000 0.24630  0.01048  0.80613  Biso   1.000  C
  C760     1.0000 0.30692  0.01008  0.74553  Biso   1.000  C
  C761     1.0000 0.01049  0.80613  0.24629  Biso   1.000  C
  C762     1.0000 0.01008  0.74554  0.30691  Biso   1.000  C
  C763     1.0000 0.93710  0.24629  0.80613  Biso   1.000  C
  C764     1.0000 0.93748  0.30691  0.74553  Biso   1.000  C
  C765     1.0000 0.24630  0.93709  0.01048  Biso   1.000  C
  C766     1.0000 0.30692  0.93747  0.01008  Biso   1.000  C
  C767     1.0000 0.80614  0.01048  0.93709  Biso   1.000  C
  C768     1.0000 0.74554  0.01008  0.93747  Biso   1.000  C
  C769     1.0000 0.79449  0.45203  0.79449  Biso   1.000  C
  C770     1.0000 0.45203  0.79449  0.95899  Biso   1.000  C
  C771     1.0000 0.79449  0.95899  0.79449  Biso   1.000  C
  C772     1.0000 0.95899  0.79449  0.45203  Biso   1.000  C
  C773     1.0000 0.79449  0.79449  0.95899  Biso   1.000  C
  C774     1.0000 0.45203  0.95899  0.79449  Biso   1.000  C
  C775     1.0000 0.79449  0.79449  0.45203  Biso   1.000  C
  C776     1.0000 0.95899  0.45203  0.79449  Biso   1.000  C
  C777     1.0000 0.79449  0.95899  0.45203  Biso   1.000  C
  C778     1.0000 0.45203  0.79449  0.79449  Biso   1.000  C
  C779     1.0000 0.79449  0.45203  0.95899  Biso   1.000  C
  C780     1.0000 0.95899  0.79449  0.79449  Biso   1.000  C
  C781     1.0000 0.54797  0.20551  0.20551  Biso   1.000  C
  C782     1.0000 0.20551  0.54797  0.04101  Biso   1.000  C
  C783     1.0000 0.04101  0.20551  0.20551  Biso   1.000  C
  C784     1.0000 0.20551  0.04101  0.54797  Biso   1.000  C
  C785     1.0000 0.20551  0.20551  0.04101  Biso   1.000  C
  C786     1.0000 0.04101  0.54797  0.20551  Biso   1.000  C
  C787     1.0000 0.20551  0.20551  0.54797  Biso   1.000  C
  C788     1.0000 0.54797  0.04101  0.20551  Biso   1.000  C
  C789     1.0000 0.04101  0.20551  0.54797  Biso   1.000  C
  C790     1.0000 0.20551  0.54797  0.20551  Biso   1.000  C
  C791     1.0000 0.54797  0.20551  0.04101  Biso   1.000  C
  C792     1.0000 0.20551  0.04101  0.20551  Biso   1.000  C
  O1       1.0000 0.12908  0.82074  0.42861  Biso   1.000  O
  O2       1.0000 0.34425  0.60557  0.14335  Biso   1.000  O
  O3       1.0000 0.41433  0.60557  0.14335  Biso   1.000  O
  O4       1.0000 0.12908  0.89082  0.35853  Biso   1.000  O
  O5       1.0000 0.12908  0.89082  0.14335  Biso   1.000  O
  O6       1.0000 0.34425  0.60557  0.42861  Biso   1.000  O
  O7       1.0000 0.41433  0.60557  0.35853  Biso   1.000  O
  O8       1.0000 0.12908  0.82074  0.14335  Biso   1.000  O
  O9       1.0000 0.12908  0.60557  0.35853  Biso   1.000  O
  O10      1.0000 0.34425  0.89082  0.14335  Biso   1.000  O
  O11      1.0000 0.41433  0.82074  0.14335  Biso   1.000  O
  O12      1.0000 0.12908  0.60557  0.42861  Biso   1.000  O
  O13      1.0000 0.61534  0.74123  0.38661  Biso   1.000  O
  O14      1.0000 0.26474  0.09183  0.27902  Biso   1.000  O
  O15      1.0000 0.37233  0.74123  0.62962  Biso   1.000  O
  O16      1.0000 0.26474  0.84882  0.27902  Biso   1.000  O
  O17      1.0000 0.61534  0.84882  0.27902  Biso   1.000  O
  O18      1.0000 0.26474  0.74123  0.38661  Biso   1.000  O
  O19      1.0000 0.37233  0.09183  0.27902  Biso   1.000  O
  O20      1.0000 0.26474  0.74123  0.62962  Biso   1.000  O
  O21      1.0000 0.61534  0.74123  0.27902  Biso   1.000  O
  O22      1.0000 0.26474  0.84882  0.62962  Biso   1.000  O
  O23      1.0000 0.37233  0.74123  0.27902  Biso   1.000  O
  O24      1.0000 0.26474  0.09183  0.38661  Biso   1.000  O
  O25      1.0000 0.49384  0.61973  0.40052  Biso   1.000  O
  O26      1.0000 0.14324  0.97033  0.50811  Biso   1.000  O
  O27      1.0000 0.49384  0.86273  0.15752  Biso   1.000  O
  O28      1.0000 0.38625  0.97033  0.50811  Biso   1.000  O
  O29      1.0000 0.38625  0.61973  0.50811  Biso   1.000  O
  O30      1.0000 0.49384  0.97033  0.40052  Biso   1.000  O
  O31      1.0000 0.14324  0.86273  0.50811  Biso   1.000  O
  O32      1.0000 0.49384  0.97033  0.15752  Biso   1.000  O
  O33      1.0000 0.49384  0.61973  0.50811  Biso   1.000  O
  O34      1.0000 0.38625  0.97033  0.15752  Biso   1.000  O
  O35      1.0000 0.49384  0.86273  0.50811  Biso   1.000  O
  O36      1.0000 0.14324  0.97033  0.40052  Biso   1.000  O
  O37      1.0000 0.61454  0.75624  0.35739  Biso   1.000  O
  O38      1.0000 0.27976  0.09103  0.29403  Biso   1.000  O
  O39      1.0000 0.34311  0.75624  0.62882  Biso   1.000  O
  O40      1.0000 0.27976  0.81960  0.29403  Biso   1.000  O
  O41      1.0000 0.61454  0.81960  0.29403  Biso   1.000  O
  O42      1.0000 0.27976  0.75624  0.35739  Biso   1.000  O
  O43      1.0000 0.34311  0.09103  0.29403  Biso   1.000  O
  O44      1.0000 0.27976  0.75624  0.62882  Biso   1.000  O
  O45      1.0000 0.61454  0.75624  0.29403  Biso   1.000  O
  O46      1.0000 0.27976  0.81960  0.62882  Biso   1.000  O
  O47      1.0000 0.34311  0.75624  0.29403  Biso   1.000  O
  O48      1.0000 0.27976  0.09103  0.35739  Biso   1.000  O
  O49      1.0000 0.47882  0.62053  0.42975  Biso   1.000  O
  O50      1.0000 0.14404  0.95531  0.49310  Biso   1.000  O
  O51      1.0000 0.47882  0.89196  0.15832  Biso   1.000  O
  O52      1.0000 0.41547  0.95531  0.49310  Biso   1.000  O
  O53      1.0000 0.41547  0.62053  0.49310  Biso   1.000  O
  O54      1.0000 0.47882  0.95531  0.42975  Biso   1.000  O
  O55      1.0000 0.14404  0.89196  0.49310  Biso   1.000  O
  O56      1.0000 0.47882  0.95531  0.15832  Biso   1.000  O
  O57      1.0000 0.47882  0.62053  0.49310  Biso   1.000  O
  O58      1.0000 0.41547  0.95531  0.15832  Biso   1.000  O
  O59      1.0000 0.47882  0.89196  0.49310  Biso   1.000  O
  O60      1.0000 0.14404  0.95531  0.42975  Biso   1.000  O
  O61      1.0000 0.61414  0.79918  0.33697  Biso   1.000  O
  O62      1.0000 0.61819  0.82085  0.35864  Biso   1.000  O
  O63      1.0000 0.32269  0.09063  0.27191  Biso   1.000  O
  O64      1.0000 0.34436  0.09468  0.22452  Biso   1.000  O
  O65      1.0000 0.32269  0.73413  0.62842  Biso   1.000  O
  O66      1.0000 0.34436  0.68674  0.63247  Biso   1.000  O
  O67      1.0000 0.25764  0.79918  0.33697  Biso   1.000  O
  O68      1.0000 0.21025  0.82085  0.35864  Biso   1.000  O
  O69      1.0000 0.61414  0.79918  0.27191  Biso   1.000  O
  O70      1.0000 0.61819  0.82085  0.22452  Biso   1.000  O
  O71      1.0000 0.32269  0.73413  0.33697  Biso   1.000  O
  O72      1.0000 0.34436  0.68674  0.35864  Biso   1.000  O
  O73      1.0000 0.32269  0.09063  0.33697  Biso   1.000  O
  O74      1.0000 0.34436  0.09468  0.35864  Biso   1.000  O
  O75      1.0000 0.25764  0.79918  0.62842  Biso   1.000  O
  O76      1.0000 0.21025  0.82085  0.63247  Biso   1.000  O
  O77      1.0000 0.61414  0.73413  0.33697  Biso   1.000  O
  O78      1.0000 0.61819  0.68674  0.35864  Biso   1.000  O
  O79      1.0000 0.32269  0.79918  0.62842  Biso   1.000  O
  O80      1.0000 0.34436  0.82085  0.63247  Biso   1.000  O
  O81      1.0000 0.32269  0.79918  0.27191  Biso   1.000  O
  O82      1.0000 0.34436  0.82085  0.22452  Biso   1.000  O
  O83      1.0000 0.25764  0.09063  0.33697  Biso   1.000  O
  O84      1.0000 0.21025  0.09468  0.35864  Biso   1.000  O
  O85      1.0000 0.43589  0.62093  0.45016  Biso   1.000  O
  O86      1.0000 0.41422  0.61688  0.42850  Biso   1.000  O
  O87      1.0000 0.14444  0.91238  0.51522  Biso   1.000  O
  O88      1.0000 0.14039  0.89071  0.56261  Biso   1.000  O
  O89      1.0000 0.50094  0.91238  0.15872  Biso   1.000  O
  O90      1.0000 0.54833  0.89071  0.15466  Biso   1.000  O
  O91      1.0000 0.43589  0.97743  0.45016  Biso   1.000  O
  O92      1.0000 0.41422  0.02482  0.42850  Biso   1.000  O
  O93      1.0000 0.43589  0.62093  0.51522  Biso   1.000  O
  O94      1.0000 0.41422  0.61688  0.56261  Biso   1.000  O
  O95      1.0000 0.50094  0.91238  0.45016  Biso   1.000  O
  O96      1.0000 0.54833  0.89071  0.42850  Biso   1.000  O
  O97      1.0000 0.14444  0.91238  0.45016  Biso   1.000  O
  O98      1.0000 0.14039  0.89071  0.42850  Biso   1.000  O
  O99      1.0000 0.43589  0.97743  0.15872  Biso   1.000  O
  O100     1.0000 0.41422  0.02482  0.15466  Biso   1.000  O
  O101     1.0000 0.50094  0.62093  0.45016  Biso   1.000  O
  O102     1.0000 0.54833  0.61688  0.42850  Biso   1.000  O
  O103     1.0000 0.43589  0.91238  0.15872  Biso   1.000  O
  O104     1.0000 0.41422  0.89071  0.15466  Biso   1.000  O
  O105     1.0000 0.43589  0.91238  0.51522  Biso   1.000  O
  O106     1.0000 0.41422  0.89071  0.56261  Biso   1.000  O
  O107     1.0000 0.14444  0.97743  0.45016  Biso   1.000  O
  O108     1.0000 0.14039  0.02482  0.42850  Biso   1.000  O
  O109     1.0000 0.61946  0.79929  0.39704  Biso   1.000  O
  O110     1.0000 0.32280  0.09595  0.20641  Biso   1.000  O
  O111     1.0000 0.38277  0.66862  0.63374  Biso   1.000  O
  O112     1.0000 0.19214  0.85926  0.33707  Biso   1.000  O
  O113     1.0000 0.61946  0.85926  0.20641  Biso   1.000  O
  O114     1.0000 0.32280  0.66862  0.39704  Biso   1.000  O
  O115     1.0000 0.38277  0.09595  0.33707  Biso   1.000  O
  O116     1.0000 0.19214  0.79929  0.63374  Biso   1.000  O
  O117     1.0000 0.61946  0.66862  0.33707  Biso   1.000  O
  O118     1.0000 0.32280  0.85926  0.63374  Biso   1.000  O
  O119     1.0000 0.38277  0.79929  0.20641  Biso   1.000  O
  O120     1.0000 0.19214  0.09595  0.39704  Biso   1.000  O
  O121     1.0000 0.43578  0.61561  0.39009  Biso   1.000  O
  O122     1.0000 0.13912  0.91227  0.58072  Biso   1.000  O
  O123     1.0000 0.56644  0.85230  0.15340  Biso   1.000  O
  O124     1.0000 0.37581  0.04293  0.45006  Biso   1.000  O
  O125     1.0000 0.37581  0.61561  0.58072  Biso   1.000  O
  O126     1.0000 0.56644  0.91227  0.39009  Biso   1.000  O
  O127     1.0000 0.13912  0.85230  0.45006  Biso   1.000  O
  O128     1.0000 0.43578  0.04293  0.15340  Biso   1.000  O
  O129     1.0000 0.56644  0.61561  0.45006  Biso   1.000  O
  O130     1.0000 0.37581  0.91227  0.15340  Biso   1.000  O
  O131     1.0000 0.43578  0.85230  0.58072  Biso   1.000  O
  O132     1.0000 0.13912  0.04293  0.39009  Biso   1.000  O
  O133     1.0000 0.13912  0.91227  0.39009  Biso   1.000  O
  O134     1.0000 0.43578  0.61561  0.58072  Biso   1.000  O
  O135     1.0000 0.37581  0.04293  0.15340  Biso   1.000  O
  O136     1.0000 0.56644  0.85230  0.45006  Biso   1.000  O
  O137     1.0000 0.13912  0.85230  0.58072  Biso   1.000  O
  O138     1.0000 0.43578  0.04293  0.39009  Biso   1.000  O
  O139     1.0000 0.37581  0.61561  0.45006  Biso   1.000  O
  O140     1.0000 0.56644  0.91227  0.15340  Biso   1.000  O
  O141     1.0000 0.13912  0.04293  0.45006  Biso   1.000  O
  O142     1.0000 0.43578  0.85230  0.15340  Biso   1.000  O
  O143     1.0000 0.37581  0.91227  0.58072  Biso   1.000  O
  O144     1.0000 0.56644  0.61561  0.39009  Biso   1.000  O
  O145     1.0000 0.32280  0.09595  0.39704  Biso   1.000  O
  O146     1.0000 0.61946  0.79929  0.20641  Biso   1.000  O
  O147     1.0000 0.19214  0.85926  0.63374  Biso   1.000  O
  O148     1.0000 0.38277  0.66862  0.33707  Biso   1.000  O
  O149     1.0000 0.38277  0.09595  0.20641  Biso   1.000  O
  O150     1.0000 0.19214  0.79929  0.39704  Biso   1.000  O
  O151     1.0000 0.61946  0.85926  0.33707  Biso   1.000  O
  O152     1.0000 0.32280  0.66862  0.63374  Biso   1.000  O
  O153     1.0000 0.19214  0.09595  0.33707  Biso   1.000  O
  O154     1.0000 0.38277  0.79929  0.63374  Biso   1.000  O
  O155     1.0000 0.32280  0.85926  0.20641  Biso   1.000  O
  O156     1.0000 0.61946  0.66862  0.39704  Biso   1.000  O
  O157     1.0000 0.12908  0.82074  0.92903  Biso   1.000  O
  O158     1.0000 0.34425  0.60557  0.64378  Biso   1.000  O
  O159     1.0000 0.41433  0.60557  0.64378  Biso   1.000  O
  O160     1.0000 0.12908  0.89082  0.85895  Biso   1.000  O
  O161     1.0000 0.12908  0.89082  0.64378  Biso   1.000  O
  O162     1.0000 0.34425  0.60557  0.92903  Biso   1.000  O
  O163     1.0000 0.41433  0.60557  0.85895  Biso   1.000  O
  O164     1.0000 0.12908  0.82074  0.64378  Biso   1.000  O
  O165     1.0000 0.12908  0.60557  0.85895  Biso   1.000  O
  O166     1.0000 0.34425  0.89082  0.64378  Biso   1.000  O
  O167     1.0000 0.41433  0.82074  0.64378  Biso   1.000  O
  O168     1.0000 0.12908  0.60557  0.92903  Biso   1.000  O
  O169     1.0000 0.61534  0.74123  0.88704  Biso   1.000  O
  O170     1.0000 0.26474  0.09183  0.77944  Biso   1.000  O
  O171     1.0000 0.37233  0.74123  0.13004  Biso   1.000  O
  O172     1.0000 0.26474  0.84882  0.77944  Biso   1.000  O
  O173     1.0000 0.61534  0.84882  0.77944  Biso   1.000  O
  O174     1.0000 0.26474  0.74123  0.88704  Biso   1.000  O
  O175     1.0000 0.37233  0.09183  0.77944  Biso   1.000  O
  O176     1.0000 0.26474  0.74123  0.13004  Biso   1.000  O
  O177     1.0000 0.61534  0.74123  0.77944  Biso   1.000  O
  O178     1.0000 0.26474  0.84882  0.13004  Biso   1.000  O
  O179     1.0000 0.37233  0.74123  0.77944  Biso   1.000  O
  O180     1.0000 0.26474  0.09183  0.88704  Biso   1.000  O
  O181     1.0000 0.49384  0.61973  0.90095  Biso   1.000  O
  O182     1.0000 0.14324  0.97033  0.00854  Biso   1.000  O
  O183     1.0000 0.49384  0.86273  0.65794  Biso   1.000  O
  O184     1.0000 0.38625  0.97033  0.00854  Biso   1.000  O
  O185     1.0000 0.38625  0.61973  0.00854  Biso   1.000  O
  O186     1.0000 0.49384  0.97033  0.90095  Biso   1.000  O
  O187     1.0000 0.14324  0.86273  0.00854  Biso   1.000  O
  O188     1.0000 0.49384  0.97033  0.65794  Biso   1.000  O
  O189     1.0000 0.49384  0.61973  0.00854  Biso   1.000  O
  O190     1.0000 0.38625  0.97033  0.65794  Biso   1.000  O
  O191     1.0000 0.49384  0.86273  0.00854  Biso   1.000  O
  O192     1.0000 0.14324  0.97033  0.90095  Biso   1.000  O
  O193     1.0000 0.61454  0.75624  0.85781  Biso   1.000  O
  O194     1.0000 0.27976  0.09103  0.79446  Biso   1.000  O
  O195     1.0000 0.34311  0.75624  0.12924  Biso   1.000  O
  O196     1.0000 0.27976  0.81960  0.79446  Biso   1.000  O
  O197     1.0000 0.61454  0.81960  0.79446  Biso   1.000  O
  O198     1.0000 0.27976  0.75624  0.85781  Biso   1.000  O
  O199     1.0000 0.34311  0.09103  0.79446  Biso   1.000  O
  O200     1.0000 0.27976  0.75624  0.12924  Biso   1.000  O
  O201     1.0000 0.61454  0.75624  0.79446  Biso   1.000  O
  O202     1.0000 0.27976  0.81960  0.12924  Biso   1.000  O
  O203     1.0000 0.34311  0.75624  0.79446  Biso   1.000  O
  O204     1.0000 0.27976  0.09103  0.85781  Biso   1.000  O
  O205     1.0000 0.47882  0.62053  0.93017  Biso   1.000  O
  O206     1.0000 0.14404  0.95531  0.99353  Biso   1.000  O
  O207     1.0000 0.47882  0.89196  0.65874  Biso   1.000  O
  O208     1.0000 0.41547  0.95531  0.99353  Biso   1.000  O
  O209     1.0000 0.41547  0.62053  0.99353  Biso   1.000  O
  O210     1.0000 0.47882  0.95531  0.93017  Biso   1.000  O
  O211     1.0000 0.14404  0.89196  0.99353  Biso   1.000  O
  O212     1.0000 0.47882  0.95531  0.65874  Biso   1.000  O
  O213     1.0000 0.47882  0.62053  0.99353  Biso   1.000  O
  O214     1.0000 0.41547  0.95531  0.65874  Biso   1.000  O
  O215     1.0000 0.47882  0.89196  0.99353  Biso   1.000  O
  O216     1.0000 0.14404  0.95531  0.93017  Biso   1.000  O
  O217     1.0000 0.61414  0.79918  0.83739  Biso   1.000  O
  O218     1.0000 0.61819  0.82085  0.85906  Biso   1.000  O
  O219     1.0000 0.32269  0.09063  0.77234  Biso   1.000  O
  O220     1.0000 0.34436  0.09468  0.72495  Biso   1.000  O
  O221     1.0000 0.32269  0.73413  0.12884  Biso   1.000  O
  O222     1.0000 0.34436  0.68674  0.13289  Biso   1.000  O
  O223     1.0000 0.25764  0.79918  0.83739  Biso   1.000  O
  O224     1.0000 0.21025  0.82085  0.85906  Biso   1.000  O
  O225     1.0000 0.61414  0.79918  0.77234  Biso   1.000  O
  O226     1.0000 0.61819  0.82085  0.72495  Biso   1.000  O
  O227     1.0000 0.32269  0.73413  0.83739  Biso   1.000  O
  O228     1.0000 0.34436  0.68674  0.85906  Biso   1.000  O
  O229     1.0000 0.32269  0.09063  0.83739  Biso   1.000  O
  O230     1.0000 0.34436  0.09468  0.85906  Biso   1.000  O
  O231     1.0000 0.25764  0.79918  0.12884  Biso   1.000  O
  O232     1.0000 0.21025  0.82085  0.13289  Biso   1.000  O
  O233     1.0000 0.61414  0.73413  0.83739  Biso   1.000  O
  O234     1.0000 0.61819  0.68674  0.85906  Biso   1.000  O
  O235     1.0000 0.32269  0.79918  0.12884  Biso   1.000  O
  O236     1.0000 0.34436  0.82085  0.13289  Biso   1.000  O
  O237     1.0000 0.32269  0.79918  0.77234  Biso   1.000  O
  O238     1.0000 0.34436  0.82085  0.72495  Biso   1.000  O
  O239     1.0000 0.25764  0.09063  0.83739  Biso   1.000  O
  O240     1.0000 0.21025  0.09468  0.85906  Biso   1.000  O
  O241     1.0000 0.43589  0.62093  0.95059  Biso   1.000  O
  O242     1.0000 0.41422  0.61688  0.92892  Biso   1.000  O
  O243     1.0000 0.14444  0.91238  0.01564  Biso   1.000  O
  O244     1.0000 0.14039  0.89071  0.06304  Biso   1.000  O
  O245     1.0000 0.50094  0.91238  0.65914  Biso   1.000  O
  O246     1.0000 0.54833  0.89071  0.65509  Biso   1.000  O
  O247     1.0000 0.43589  0.97743  0.95059  Biso   1.000  O
  O248     1.0000 0.41422  0.02482  0.92892  Biso   1.000  O
  O249     1.0000 0.43589  0.62093  0.01564  Biso   1.000  O
  O250     1.0000 0.41422  0.61688  0.06304  Biso   1.000  O
  O251     1.0000 0.50094  0.91238  0.95059  Biso   1.000  O
  O252     1.0000 0.54833  0.89071  0.92892  Biso   1.000  O
  O253     1.0000 0.14444  0.91238  0.95059  Biso   1.000  O
  O254     1.0000 0.14039  0.89071  0.92892  Biso   1.000  O
  O255     1.0000 0.43589  0.97743  0.65914  Biso   1.000  O
  O256     1.0000 0.41422  0.02482  0.65509  Biso   1.000  O
  O257     1.0000 0.50094  0.62093  0.95059  Biso   1.000  O
  O258     1.0000 0.54833  0.61688  0.92892  Biso   1.000  O
  O259     1.0000 0.43589  0.91238  0.65914  Biso   1.000  O
  O260     1.0000 0.41422  0.89071  0.65509  Biso   1.000  O
  O261     1.0000 0.43589  0.91238  0.01564  Biso   1.000  O
  O262     1.0000 0.41422  0.89071  0.06304  Biso   1.000  O
  O263     1.0000 0.14444  0.97743  0.95059  Biso   1.000  O
  O264     1.0000 0.14039  0.02482  0.92892  Biso   1.000  O
  O265     1.0000 0.61946  0.79929  0.89747  Biso   1.000  O
  O266     1.0000 0.32280  0.09595  0.70684  Biso   1.000  O
  O267     1.0000 0.38277  0.66862  0.13416  Biso   1.000  O
  O268     1.0000 0.19214  0.85926  0.83750  Biso   1.000  O
  O269     1.0000 0.61946  0.85926  0.70684  Biso   1.000  O
  O270     1.0000 0.32280  0.66862  0.89747  Biso   1.000  O
  O271     1.0000 0.38277  0.09595  0.83750  Biso   1.000  O
  O272     1.0000 0.19214  0.79929  0.13416  Biso   1.000  O
  O273     1.0000 0.61946  0.66862  0.83750  Biso   1.000  O
  O274     1.0000 0.32280  0.85926  0.13416  Biso   1.000  O
  O275     1.0000 0.38277  0.79929  0.70684  Biso   1.000  O
  O276     1.0000 0.19214  0.09595  0.89747  Biso   1.000  O
  O277     1.0000 0.43578  0.61561  0.89051  Biso   1.000  O
  O278     1.0000 0.13912  0.91227  0.08115  Biso   1.000  O
  O279     1.0000 0.56644  0.85230  0.65382  Biso   1.000  O
  O280     1.0000 0.37581  0.04293  0.95048  Biso   1.000  O
  O281     1.0000 0.37581  0.61561  0.08115  Biso   1.000  O
  O282     1.0000 0.56644  0.91227  0.89051  Biso   1.000  O
  O283     1.0000 0.13912  0.85230  0.95048  Biso   1.000  O
  O284     1.0000 0.43578  0.04293  0.65382  Biso   1.000  O
  O285     1.0000 0.56644  0.61561  0.95048  Biso   1.000  O
  O286     1.0000 0.37581  0.91227  0.65382  Biso   1.000  O
  O287     1.0000 0.43578  0.85230  0.08115  Biso   1.000  O
  O288     1.0000 0.13912  0.04293  0.89051  Biso   1.000  O
  O289     1.0000 0.13912  0.91227  0.89051  Biso   1.000  O
  O290     1.0000 0.43578  0.61561  0.08115  Biso   1.000  O
  O291     1.0000 0.37581  0.04293  0.65382  Biso   1.000  O
  O292     1.0000 0.56644  0.85230  0.95048  Biso   1.000  O
  O293     1.0000 0.13912  0.85230  0.08115  Biso   1.000  O
  O294     1.0000 0.43578  0.04293  0.89051  Biso   1.000  O
  O295     1.0000 0.37581  0.61561  0.95048  Biso   1.000  O
  O296     1.0000 0.56644  0.91227  0.65382  Biso   1.000  O
  O297     1.0000 0.13912  0.04293  0.95048  Biso   1.000  O
  O298     1.0000 0.43578  0.85230  0.65382  Biso   1.000  O
  O299     1.0000 0.37581  0.91227  0.08115  Biso   1.000  O
  O300     1.0000 0.56644  0.61561  0.89051  Biso   1.000  O
  O301     1.0000 0.32280  0.09595  0.89747  Biso   1.000  O
  O302     1.0000 0.61946  0.79929  0.70684  Biso   1.000  O
  O303     1.0000 0.19214  0.85926  0.13416  Biso   1.000  O
  O304     1.0000 0.38277  0.66862  0.83750  Biso   1.000  O
  O305     1.0000 0.38277  0.09595  0.70684  Biso   1.000  O
  O306     1.0000 0.19214  0.79929  0.89747  Biso   1.000  O
  O307     1.0000 0.61946  0.85926  0.83750  Biso   1.000  O
  O308     1.0000 0.32280  0.66862  0.13416  Biso   1.000  O
  O309     1.0000 0.19214  0.09595  0.83750  Biso   1.000  O
  O310     1.0000 0.38277  0.79929  0.13416  Biso   1.000  O
  O311     1.0000 0.32280  0.85926  0.70684  Biso   1.000  O
  O312     1.0000 0.61946  0.66862  0.89747  Biso   1.000  O
  O313     1.0000 0.12908  0.32116  0.42861  Biso   1.000  O
  O314     1.0000 0.34425  0.10599  0.14335  Biso   1.000  O
  O315     1.0000 0.41433  0.10599  0.14335  Biso   1.000  O
  O316     1.0000 0.12908  0.39124  0.35853  Biso   1.000  O
  O317     1.0000 0.12908  0.39124  0.14335  Biso   1.000  O
  O318     1.0000 0.34425  0.10599  0.42861  Biso   1.000  O
  O319     1.0000 0.41433  0.10599  0.35853  Biso   1.000  O
  O320     1.0000 0.12908  0.32116  0.14335  Biso   1.000  O
  O321     1.0000 0.12908  0.10599  0.35853  Biso   1.000  O
  O322     1.0000 0.34425  0.39124  0.14335  Biso   1.000  O
  O323     1.0000 0.41433  0.32116  0.14335  Biso   1.000  O
  O324     1.0000 0.12908  0.10599  0.42861  Biso   1.000  O
  O325     1.0000 0.61534  0.24166  0.38661  Biso   1.000  O
  O326     1.0000 0.26474  0.59225  0.27902  Biso   1.000  O
  O327     1.0000 0.37233  0.24166  0.62962  Biso   1.000  O
  O328     1.0000 0.26474  0.34925  0.27902  Biso   1.000  O
  O329     1.0000 0.61534  0.34925  0.27902  Biso   1.000  O
  O330     1.0000 0.26474  0.24166  0.38661  Biso   1.000  O
  O331     1.0000 0.37233  0.59225  0.27902  Biso   1.000  O
  O332     1.0000 0.26474  0.24166  0.62962  Biso   1.000  O
  O333     1.0000 0.61534  0.24166  0.27902  Biso   1.000  O
  O334     1.0000 0.26474  0.34925  0.62962  Biso   1.000  O
  O335     1.0000 0.37233  0.24166  0.27902  Biso   1.000  O
  O336     1.0000 0.26474  0.59225  0.38661  Biso   1.000  O
  O337     1.0000 0.49384  0.12015  0.40052  Biso   1.000  O
  O338     1.0000 0.14324  0.47075  0.50811  Biso   1.000  O
  O339     1.0000 0.49384  0.36316  0.15752  Biso   1.000  O
  O340     1.0000 0.38625  0.47075  0.50811  Biso   1.000  O
  O341     1.0000 0.38625  0.12015  0.50811  Biso   1.000  O
  O342     1.0000 0.49384  0.47075  0.40052  Biso   1.000  O
  O343     1.0000 0.14324  0.36316  0.50811  Biso   1.000  O
  O344     1.0000 0.49384  0.47075  0.15752  Biso   1.000  O
  O345     1.0000 0.49384  0.12015  0.50811  Biso   1.000  O
  O346     1.0000 0.38625  0.47075  0.15752  Biso   1.000  O
  O347     1.0000 0.49384  0.36316  0.50811  Biso   1.000  O
  O348     1.0000 0.14324  0.47075  0.40052  Biso   1.000  O
  O349     1.0000 0.61454  0.25667  0.35739  Biso   1.000  O
  O350     1.0000 0.27976  0.59145  0.29403  Biso   1.000  O
  O351     1.0000 0.34311  0.25667  0.62882  Biso   1.000  O
  O352     1.0000 0.27976  0.32002  0.29403  Biso   1.000  O
  O353     1.0000 0.61454  0.32002  0.29403  Biso   1.000  O
  O354     1.0000 0.27976  0.25667  0.35739  Biso   1.000  O
  O355     1.0000 0.34311  0.59145  0.29403  Biso   1.000  O
  O356     1.0000 0.27976  0.25667  0.62882  Biso   1.000  O
  O357     1.0000 0.61454  0.25667  0.29403  Biso   1.000  O
  O358     1.0000 0.27976  0.32002  0.62882  Biso   1.000  O
  O359     1.0000 0.34311  0.25667  0.29403  Biso   1.000  O
  O360     1.0000 0.27976  0.59145  0.35739  Biso   1.000  O
  O361     1.0000 0.47882  0.12095  0.42975  Biso   1.000  O
  O362     1.0000 0.14404  0.45574  0.49310  Biso   1.000  O
  O363     1.0000 0.47882  0.39238  0.15832  Biso   1.000  O
  O364     1.0000 0.41547  0.45574  0.49310  Biso   1.000  O
  O365     1.0000 0.41547  0.12095  0.49310  Biso   1.000  O
  O366     1.0000 0.47882  0.45574  0.42975  Biso   1.000  O
  O367     1.0000 0.14404  0.39238  0.49310  Biso   1.000  O
  O368     1.0000 0.47882  0.45574  0.15832  Biso   1.000  O
  O369     1.0000 0.47882  0.12095  0.49310  Biso   1.000  O
  O370     1.0000 0.41547  0.45574  0.15832  Biso   1.000  O
  O371     1.0000 0.47882  0.39238  0.49310  Biso   1.000  O
  O372     1.0000 0.14404  0.45574  0.42975  Biso   1.000  O
  O373     1.0000 0.61414  0.29961  0.33697  Biso   1.000  O
  O374     1.0000 0.61819  0.32127  0.35864  Biso   1.000  O
  O375     1.0000 0.32269  0.59105  0.27191  Biso   1.000  O
  O376     1.0000 0.34436  0.59511  0.22452  Biso   1.000  O
  O377     1.0000 0.32269  0.23455  0.62842  Biso   1.000  O
  O378     1.0000 0.34436  0.18716  0.63247  Biso   1.000  O
  O379     1.0000 0.25764  0.29961  0.33697  Biso   1.000  O
  O380     1.0000 0.21025  0.32127  0.35864  Biso   1.000  O
  O381     1.0000 0.61414  0.29961  0.27191  Biso   1.000  O
  O382     1.0000 0.61819  0.32127  0.22452  Biso   1.000  O
  O383     1.0000 0.32269  0.23455  0.33697  Biso   1.000  O
  O384     1.0000 0.34436  0.18716  0.35864  Biso   1.000  O
  O385     1.0000 0.32269  0.59105  0.33697  Biso   1.000  O
  O386     1.0000 0.34436  0.59511  0.35864  Biso   1.000  O
  O387     1.0000 0.25764  0.29961  0.62842  Biso   1.000  O
  O388     1.0000 0.21025  0.32127  0.63247  Biso   1.000  O
  O389     1.0000 0.61414  0.23455  0.33697  Biso   1.000  O
  O390     1.0000 0.61819  0.18716  0.35864  Biso   1.000  O
  O391     1.0000 0.32269  0.29961  0.62842  Biso   1.000  O
  O392     1.0000 0.34436  0.32127  0.63247  Biso   1.000  O
  O393     1.0000 0.32269  0.29961  0.27191  Biso   1.000  O
  O394     1.0000 0.34436  0.32127  0.22452  Biso   1.000  O
  O395     1.0000 0.25764  0.59105  0.33697  Biso   1.000  O
  O396     1.0000 0.21025  0.59511  0.35864  Biso   1.000  O
  O397     1.0000 0.43589  0.12135  0.45016  Biso   1.000  O
  O398     1.0000 0.41422  0.11730  0.42850  Biso   1.000  O
  O399     1.0000 0.14444  0.41280  0.51522  Biso   1.000  O
  O400     1.0000 0.14039  0.39113  0.56261  Biso   1.000  O
  O401     1.0000 0.50094  0.41280  0.15872  Biso   1.000  O
  O402     1.0000 0.54833  0.39113  0.15466  Biso   1.000  O
  O403     1.0000 0.43589  0.47786  0.45016  Biso   1.000  O
  O404     1.0000 0.41422  0.52525  0.42850  Biso   1.000  O
  O405     1.0000 0.43589  0.12135  0.51522  Biso   1.000  O
  O406     1.0000 0.41422  0.11730  0.56261  Biso   1.000  O
  O407     1.0000 0.50094  0.41280  0.45016  Biso   1.000  O
  O408     1.0000 0.54833  0.39113  0.42850  Biso   1.000  O
  O409     1.0000 0.14444  0.41280  0.45016  Biso   1.000  O
  O410     1.0000 0.14039  0.39113  0.42850  Biso   1.000  O
  O411     1.0000 0.43589  0.47786  0.15872  Biso   1.000  O
  O412     1.0000 0.41422  0.52525  0.15466  Biso   1.000  O
  O413     1.0000 0.50094  0.12135  0.45016  Biso   1.000  O
  O414     1.0000 0.54833  0.11730  0.42850  Biso   1.000  O
  O415     1.0000 0.43589  0.41280  0.15872  Biso   1.000  O
  O416     1.0000 0.41422  0.39113  0.15466  Biso   1.000  O
  O417     1.0000 0.43589  0.41280  0.51522  Biso   1.000  O
  O418     1.0000 0.41422  0.39113  0.56261  Biso   1.000  O
  O419     1.0000 0.14444  0.47786  0.45016  Biso   1.000  O
  O420     1.0000 0.14039  0.52525  0.42850  Biso   1.000  O
  O421     1.0000 0.61946  0.29971  0.39704  Biso   1.000  O
  O422     1.0000 0.32280  0.59637  0.20641  Biso   1.000  O
  O423     1.0000 0.38277  0.16905  0.63374  Biso   1.000  O
  O424     1.0000 0.19214  0.35968  0.33707  Biso   1.000  O
  O425     1.0000 0.61946  0.35968  0.20641  Biso   1.000  O
  O426     1.0000 0.32280  0.16905  0.39704  Biso   1.000  O
  O427     1.0000 0.38277  0.59637  0.33707  Biso   1.000  O
  O428     1.0000 0.19214  0.29971  0.63374  Biso   1.000  O
  O429     1.0000 0.61946  0.16905  0.33707  Biso   1.000  O
  O430     1.0000 0.32280  0.35968  0.63374  Biso   1.000  O
  O431     1.0000 0.38277  0.29971  0.20641  Biso   1.000  O
  O432     1.0000 0.19214  0.59637  0.39704  Biso   1.000  O
  O433     1.0000 0.43578  0.11603  0.39009  Biso   1.000  O
  O434     1.0000 0.13912  0.41270  0.58072  Biso   1.000  O
  O435     1.0000 0.56644  0.35273  0.15340  Biso   1.000  O
  O436     1.0000 0.37581  0.54336  0.45006  Biso   1.000  O
  O437     1.0000 0.37581  0.11603  0.58072  Biso   1.000  O
  O438     1.0000 0.56644  0.41270  0.39009  Biso   1.000  O
  O439     1.0000 0.13912  0.35273  0.45006  Biso   1.000  O
  O440     1.0000 0.43578  0.54336  0.15340  Biso   1.000  O
  O441     1.0000 0.56644  0.11603  0.45006  Biso   1.000  O
  O442     1.0000 0.37581  0.41270  0.15340  Biso   1.000  O
  O443     1.0000 0.43578  0.35273  0.58072  Biso   1.000  O
  O444     1.0000 0.13912  0.54336  0.39009  Biso   1.000  O
  O445     1.0000 0.13912  0.41270  0.39009  Biso   1.000  O
  O446     1.0000 0.43578  0.11603  0.58072  Biso   1.000  O
  O447     1.0000 0.37581  0.54336  0.15340  Biso   1.000  O
  O448     1.0000 0.56644  0.35273  0.45006  Biso   1.000  O
  O449     1.0000 0.13912  0.35273  0.58072  Biso   1.000  O
  O450     1.0000 0.43578  0.54336  0.39009  Biso   1.000  O
  O451     1.0000 0.37581  0.11603  0.45006  Biso   1.000  O
  O452     1.0000 0.56644  0.41270  0.15340  Biso   1.000  O
  O453     1.0000 0.13912  0.54336  0.45006  Biso   1.000  O
  O454     1.0000 0.43578  0.35273  0.15340  Biso   1.000  O
  O455     1.0000 0.37581  0.41270  0.58072  Biso   1.000  O
  O456     1.0000 0.56644  0.11603  0.39009  Biso   1.000  O
  O457     1.0000 0.32280  0.59637  0.39704  Biso   1.000  O
  O458     1.0000 0.61946  0.29971  0.20641  Biso   1.000  O
  O459     1.0000 0.19214  0.35968  0.63374  Biso   1.000  O
  O460     1.0000 0.38277  0.16905  0.33707  Biso   1.000  O
  O461     1.0000 0.38277  0.59637  0.20641  Biso   1.000  O
  O462     1.0000 0.19214  0.29971  0.39704  Biso   1.000  O
  O463     1.0000 0.61946  0.35968  0.33707  Biso   1.000  O
  O464     1.0000 0.32280  0.16905  0.63374  Biso   1.000  O
  O465     1.0000 0.19214  0.59637  0.33707  Biso   1.000  O
  O466     1.0000 0.38277  0.29971  0.63374  Biso   1.000  O
  O467     1.0000 0.32280  0.35968  0.20641  Biso   1.000  O
  O468     1.0000 0.61946  0.16905  0.39704  Biso   1.000  O
  O469     1.0000 0.12908  0.32116  0.92903  Biso   1.000  O
  O470     1.0000 0.34425  0.10599  0.64378  Biso   1.000  O
  O471     1.0000 0.41433  0.10599  0.64378  Biso   1.000  O
  O472     1.0000 0.12908  0.39124  0.85895  Biso   1.000  O
  O473     1.0000 0.12908  0.39124  0.64378  Biso   1.000  O
  O474     1.0000 0.34425  0.10599  0.92903  Biso   1.000  O
  O475     1.0000 0.41433  0.10599  0.85895  Biso   1.000  O
  O476     1.0000 0.12908  0.32116  0.64378  Biso   1.000  O
  O477     1.0000 0.12908  0.10599  0.85895  Biso   1.000  O
  O478     1.0000 0.34425  0.39124  0.64378  Biso   1.000  O
  O479     1.0000 0.41433  0.32116  0.64378  Biso   1.000  O
  O480     1.0000 0.12908  0.10599  0.92903  Biso   1.000  O
  O481     1.0000 0.61534  0.24166  0.88704  Biso   1.000  O
  O482     1.0000 0.26474  0.59225  0.77944  Biso   1.000  O
  O483     1.0000 0.37233  0.24166  0.13004  Biso   1.000  O
  O484     1.0000 0.26474  0.34925  0.77944  Biso   1.000  O
  O485     1.0000 0.61534  0.34925  0.77944  Biso   1.000  O
  O486     1.0000 0.26474  0.24166  0.88704  Biso   1.000  O
  O487     1.0000 0.37233  0.59225  0.77944  Biso   1.000  O
  O488     1.0000 0.26474  0.24166  0.13004  Biso   1.000  O
  O489     1.0000 0.61534  0.24166  0.77944  Biso   1.000  O
  O490     1.0000 0.26474  0.34925  0.13004  Biso   1.000  O
  O491     1.0000 0.37233  0.24166  0.77944  Biso   1.000  O
  O492     1.0000 0.26474  0.59225  0.88704  Biso   1.000  O
  O493     1.0000 0.49384  0.12015  0.90095  Biso   1.000  O
  O494     1.0000 0.14324  0.47075  0.00854  Biso   1.000  O
  O495     1.0000 0.49384  0.36316  0.65794  Biso   1.000  O
  O496     1.0000 0.38625  0.47075  0.00854  Biso   1.000  O
  O497     1.0000 0.38625  0.12015  0.00854  Biso   1.000  O
  O498     1.0000 0.49384  0.47075  0.90095  Biso   1.000  O
  O499     1.0000 0.14324  0.36316  0.00854  Biso   1.000  O
  O500     1.0000 0.49384  0.47075  0.65794  Biso   1.000  O
  O501     1.0000 0.49384  0.12015  0.00854  Biso   1.000  O
  O502     1.0000 0.38625  0.47075  0.65794  Biso   1.000  O
  O503     1.0000 0.49384  0.36316  0.00854  Biso   1.000  O
  O504     1.0000 0.14324  0.47075  0.90095  Biso   1.000  O
  O505     1.0000 0.61454  0.25667  0.85781  Biso   1.000  O
  O506     1.0000 0.27976  0.59145  0.79446  Biso   1.000  O
  O507     1.0000 0.34311  0.25667  0.12924  Biso   1.000  O
  O508     1.0000 0.27976  0.32002  0.79446  Biso   1.000  O
  O509     1.0000 0.61454  0.32002  0.79446  Biso   1.000  O
  O510     1.0000 0.27976  0.25667  0.85781  Biso   1.000  O
  O511     1.0000 0.34311  0.59145  0.79446  Biso   1.000  O
  O512     1.0000 0.27976  0.25667  0.12924  Biso   1.000  O
  O513     1.0000 0.61454  0.25667  0.79446  Biso   1.000  O
  O514     1.0000 0.27976  0.32002  0.12924  Biso   1.000  O
  O515     1.0000 0.34311  0.25667  0.79446  Biso   1.000  O
  O516     1.0000 0.27976  0.59145  0.85781  Biso   1.000  O
  O517     1.0000 0.47882  0.12095  0.93017  Biso   1.000  O
  O518     1.0000 0.14404  0.45574  0.99353  Biso   1.000  O
  O519     1.0000 0.47882  0.39238  0.65874  Biso   1.000  O
  O520     1.0000 0.41547  0.45574  0.99353  Biso   1.000  O
  O521     1.0000 0.41547  0.12095  0.99353  Biso   1.000  O
  O522     1.0000 0.47882  0.45574  0.93017  Biso   1.000  O
  O523     1.0000 0.14404  0.39238  0.99353  Biso   1.000  O
  O524     1.0000 0.47882  0.45574  0.65874  Biso   1.000  O
  O525     1.0000 0.47882  0.12095  0.99353  Biso   1.000  O
  O526     1.0000 0.41547  0.45574  0.65874  Biso   1.000  O
  O527     1.0000 0.47882  0.39238  0.99353  Biso   1.000  O
  O528     1.0000 0.14404  0.45574  0.93017  Biso   1.000  O
  O529     1.0000 0.61414  0.29961  0.83739  Biso   1.000  O
  O530     1.0000 0.61819  0.32127  0.85906  Biso   1.000  O
  O531     1.0000 0.32269  0.59105  0.77234  Biso   1.000  O
  O532     1.0000 0.34436  0.59511  0.72495  Biso   1.000  O
  O533     1.0000 0.32269  0.23455  0.12884  Biso   1.000  O
  O534     1.0000 0.34436  0.18716  0.13289  Biso   1.000  O
  O535     1.0000 0.25764  0.29961  0.83739  Biso   1.000  O
  O536     1.0000 0.21025  0.32127  0.85906  Biso   1.000  O
  O537     1.0000 0.61414  0.29961  0.77234  Biso   1.000  O
  O538     1.0000 0.61819  0.32127  0.72495  Biso   1.000  O
  O539     1.0000 0.32269  0.23455  0.83739  Biso   1.000  O
  O540     1.0000 0.34436  0.18716  0.85906  Biso   1.000  O
  O541     1.0000 0.32269  0.59105  0.83739  Biso   1.000  O
  O542     1.0000 0.34436  0.59511  0.85906  Biso   1.000  O
  O543     1.0000 0.25764  0.29961  0.12884  Biso   1.000  O
  O544     1.0000 0.21025  0.32127  0.13289  Biso   1.000  O
  O545     1.0000 0.61414  0.23455  0.83739  Biso   1.000  O
  O546     1.0000 0.61819  0.18716  0.85906  Biso   1.000  O
  O547     1.0000 0.32269  0.29961  0.12884  Biso   1.000  O
  O548     1.0000 0.34436  0.32127  0.13289  Biso   1.000  O
  O549     1.0000 0.32269  0.29961  0.77234  Biso   1.000  O
  O550     1.0000 0.34436  0.32127  0.72495  Biso   1.000  O
  O551     1.0000 0.25764  0.59105  0.83739  Biso   1.000  O
  O552     1.0000 0.21025  0.59511  0.85906  Biso   1.000  O
  O553     1.0000 0.43589  0.12135  0.95059  Biso   1.000  O
  O554     1.0000 0.41422  0.11730  0.92892  Biso   1.000  O
  O555     1.0000 0.14444  0.41280  0.01564  Biso   1.000  O
  O556     1.0000 0.14039  0.39113  0.06304  Biso   1.000  O
  O557     1.0000 0.50094  0.41280  0.65914  Biso   1.000  O
  O558     1.0000 0.54833  0.39113  0.65509  Biso   1.000  O
  O559     1.0000 0.43589  0.47786  0.95059  Biso   1.000  O
  O560     1.0000 0.41422  0.52525  0.92892  Biso   1.000  O
  O561     1.0000 0.43589  0.12135  0.01564  Biso   1.000  O
  O562     1.0000 0.41422  0.11730  0.06304  Biso   1.000  O
  O563     1.0000 0.50094  0.41280  0.95059  Biso   1.000  O
  O564     1.0000 0.54833  0.39113  0.92892  Biso   1.000  O
  O565     1.0000 0.14444  0.41280  0.95059  Biso   1.000  O
  O566     1.0000 0.14039  0.39113  0.92892  Biso   1.000  O
  O567     1.0000 0.43589  0.47786  0.65914  Biso   1.000  O
  O568     1.0000 0.41422  0.52525  0.65509  Biso   1.000  O
  O569     1.0000 0.50094  0.12135  0.95059  Biso   1.000  O
  O570     1.0000 0.54833  0.11730  0.92892  Biso   1.000  O
  O571     1.0000 0.43589  0.41280  0.65914  Biso   1.000  O
  O572     1.0000 0.41422  0.39113  0.65509  Biso   1.000  O
  O573     1.0000 0.43589  0.41280  0.01564  Biso   1.000  O
  O574     1.0000 0.41422  0.39113  0.06304  Biso   1.000  O
  O575     1.0000 0.14444  0.47786  0.95059  Biso   1.000  O
  O576     1.0000 0.14039  0.52525  0.92892  Biso   1.000  O
  O577     1.0000 0.61946  0.29971  0.89747  Biso   1.000  O
  O578     1.0000 0.32280  0.59637  0.70684  Biso   1.000  O
  O579     1.0000 0.38277  0.16905  0.13416  Biso   1.000  O
  O580     1.0000 0.19214  0.35968  0.83750  Biso   1.000  O
  O581     1.0000 0.61946  0.35968  0.70684  Biso   1.000  O
  O582     1.0000 0.32280  0.16905  0.89747  Biso   1.000  O
  O583     1.0000 0.38277  0.59637  0.83750  Biso   1.000  O
  O584     1.0000 0.19214  0.29971  0.13416  Biso   1.000  O
  O585     1.0000 0.61946  0.16905  0.83750  Biso   1.000  O
  O586     1.0000 0.32280  0.35968  0.13416  Biso   1.000  O
  O587     1.0000 0.38277  0.29971  0.70684  Biso   1.000  O
  O588     1.0000 0.19214  0.59637  0.89747  Biso   1.000  O
  O589     1.0000 0.43578  0.11603  0.89051  Biso   1.000  O
  O590     1.0000 0.13912  0.41270  0.08115  Biso   1.000  O
  O591     1.0000 0.56644  0.35273  0.65382  Biso   1.000  O
  O592     1.0000 0.37581  0.54336  0.95048  Biso   1.000  O
  O593     1.0000 0.37581  0.11603  0.08115  Biso   1.000  O
  O594     1.0000 0.56644  0.41270  0.89051  Biso   1.000  O
  O595     1.0000 0.13912  0.35273  0.95048  Biso   1.000  O
  O596     1.0000 0.43578  0.54336  0.65382  Biso   1.000  O
  O597     1.0000 0.56644  0.11603  0.95048  Biso   1.000  O
  O598     1.0000 0.37581  0.41270  0.65382  Biso   1.000  O
  O599     1.0000 0.43578  0.35273  0.08115  Biso   1.000  O
  O600     1.0000 0.13912  0.54336  0.89051  Biso   1.000  O
  O601     1.0000 0.13912  0.41270  0.89051  Biso   1.000  O
  O602     1.0000 0.43578  0.11603  0.08115  Biso   1.000  O
  O603     1.0000 0.37581  0.54336  0.65382  Biso   1.000  O
  O604     1.0000 0.56644  0.35273  0.95048  Biso   1.000  O
  O605     1.0000 0.13912  0.35273  0.08115  Biso   1.000  O
  O606     1.0000 0.43578  0.54336  0.89051  Biso   1.000  O
  O607     1.0000 0.37581  0.11603  0.95048  Biso   1.000  O
  O608     1.0000 0.56644  0.41270  0.65382  Biso   1.000  O
  O609     1.0000 0.13912  0.54336  0.95048  Biso   1.000  O
  O610     1.0000 0.43578  0.35273  0.65382  Biso   1.000  O
  O611     1.0000 0.37581  0.41270  0.08115  Biso   1.000  O
  O612     1.0000 0.56644  0.11603  0.89051  Biso   1.000  O
  O613     1.0000 0.32280  0.59637  0.89747  Biso   1.000  O
  O614     1.0000 0.61946  0.29971  0.70684  Biso   1.000  O
  O615     1.0000 0.19214  0.35968  0.13416  Biso   1.000  O
  O616     1.0000 0.38277  0.16905  0.83750  Biso   1.000  O
  O617     1.0000 0.38277  0.59637  0.70684  Biso   1.000  O
  O618     1.0000 0.19214  0.29971  0.89747  Biso   1.000  O
  O619     1.0000 0.61946  0.35968  0.83750  Biso   1.000  O
  O620     1.0000 0.32280  0.16905  0.13416  Biso   1.000  O
  O621     1.0000 0.19214  0.59637  0.83750  Biso   1.000  O
  O622     1.0000 0.38277  0.29971  0.13416  Biso   1.000  O
  O623     1.0000 0.32280  0.35968  0.70684  Biso   1.000  O
  O624     1.0000 0.61946  0.16905  0.89747  Biso   1.000  O
  O625     1.0000 0.62950  0.82074  0.42861  Biso   1.000  O
  O626     1.0000 0.84468  0.60557  0.14335  Biso   1.000  O
  O627     1.0000 0.91475  0.60557  0.14335  Biso   1.000  O
  O628     1.0000 0.62950  0.89082  0.35853  Biso   1.000  O
  O629     1.0000 0.62950  0.89082  0.14335  Biso   1.000  O
  O630     1.0000 0.84468  0.60557  0.42861  Biso   1.000  O
  O631     1.0000 0.91475  0.60557  0.35853  Biso   1.000  O
  O632     1.0000 0.62950  0.82074  0.14335  Biso   1.000  O
  O633     1.0000 0.62950  0.60557  0.35853  Biso   1.000  O
  O634     1.0000 0.84468  0.89082  0.14335  Biso   1.000  O
  O635     1.0000 0.91475  0.82074  0.14335  Biso   1.000  O
  O636     1.0000 0.62950  0.60557  0.42861  Biso   1.000  O
  O637     1.0000 0.11577  0.74123  0.38661  Biso   1.000  O
  O638     1.0000 0.76517  0.09183  0.27902  Biso   1.000  O
  O639     1.0000 0.87276  0.74123  0.62962  Biso   1.000  O
  O640     1.0000 0.76517  0.84882  0.27902  Biso   1.000  O
  O641     1.0000 0.11577  0.84882  0.27902  Biso   1.000  O
  O642     1.0000 0.76517  0.74123  0.38661  Biso   1.000  O
  O643     1.0000 0.87276  0.09183  0.27902  Biso   1.000  O
  O644     1.0000 0.76517  0.74123  0.62962  Biso   1.000  O
  O645     1.0000 0.11577  0.74123  0.27902  Biso   1.000  O
  O646     1.0000 0.76517  0.84882  0.62962  Biso   1.000  O
  O647     1.0000 0.87276  0.74123  0.27902  Biso   1.000  O
  O648     1.0000 0.76517  0.09183  0.38661  Biso   1.000  O
  O649     1.0000 0.99426  0.61973  0.40052  Biso   1.000  O
  O650     1.0000 0.64366  0.97033  0.50811  Biso   1.000  O
  O651     1.0000 0.99426  0.86273  0.15752  Biso   1.000  O
  O652     1.0000 0.88667  0.97033  0.50811  Biso   1.000  O
  O653     1.0000 0.88667  0.61973  0.50811  Biso   1.000  O
  O654     1.0000 0.99426  0.97033  0.40052  Biso   1.000  O
  O655     1.0000 0.64366  0.86273  0.50811  Biso   1.000  O
  O656     1.0000 0.99426  0.97033  0.15752  Biso   1.000  O
  O657     1.0000 0.99426  0.61973  0.50811  Biso   1.000  O
  O658     1.0000 0.88667  0.97033  0.15752  Biso   1.000  O
  O659     1.0000 0.99426  0.86273  0.50811  Biso   1.000  O
  O660     1.0000 0.64366  0.97033  0.40052  Biso   1.000  O
  O661     1.0000 0.11497  0.75624  0.35739  Biso   1.000  O
  O662     1.0000 0.78018  0.09103  0.29403  Biso   1.000  O
  O663     1.0000 0.84353  0.75624  0.62882  Biso   1.000  O
  O664     1.0000 0.78018  0.81960  0.29403  Biso   1.000  O
  O665     1.0000 0.11497  0.81960  0.29403  Biso   1.000  O
  O666     1.0000 0.78018  0.75624  0.35739  Biso   1.000  O
  O667     1.0000 0.84353  0.09103  0.29403  Biso   1.000  O
  O668     1.0000 0.78018  0.75624  0.62882  Biso   1.000  O
  O669     1.0000 0.11497  0.75624  0.29403  Biso   1.000  O
  O670     1.0000 0.78018  0.81960  0.62882  Biso   1.000  O
  O671     1.0000 0.84353  0.75624  0.29403  Biso   1.000  O
  O672     1.0000 0.78018  0.09103  0.35739  Biso   1.000  O
  O673     1.0000 0.97925  0.62053  0.42975  Biso   1.000  O
  O674     1.0000 0.64447  0.95531  0.49310  Biso   1.000  O
  O675     1.0000 0.97925  0.89196  0.15832  Biso   1.000  O
  O676     1.0000 0.91590  0.95531  0.49310  Biso   1.000  O
  O677     1.0000 0.91590  0.62053  0.49310  Biso   1.000  O
  O678     1.0000 0.97925  0.95531  0.42975  Biso   1.000  O
  O679     1.0000 0.64447  0.89196  0.49310  Biso   1.000  O
  O680     1.0000 0.97925  0.95531  0.15832  Biso   1.000  O
  O681     1.0000 0.97925  0.62053  0.49310  Biso   1.000  O
  O682     1.0000 0.91590  0.95531  0.15832  Biso   1.000  O
  O683     1.0000 0.97925  0.89196  0.49310  Biso   1.000  O
  O684     1.0000 0.64447  0.95531  0.42975  Biso   1.000  O
  O685     1.0000 0.11456  0.79918  0.33697  Biso   1.000  O
  O686     1.0000 0.11862  0.82085  0.35864  Biso   1.000  O
  O687     1.0000 0.82312  0.09063  0.27191  Biso   1.000  O
  O688     1.0000 0.84479  0.09468  0.22452  Biso   1.000  O
  O689     1.0000 0.82312  0.73413  0.62842  Biso   1.000  O
  O690     1.0000 0.84479  0.68674  0.63247  Biso   1.000  O
  O691     1.0000 0.75806  0.79918  0.33697  Biso   1.000  O
  O692     1.0000 0.71067  0.82085  0.35864  Biso   1.000  O
  O693     1.0000 0.11456  0.79918  0.27191  Biso   1.000  O
  O694     1.0000 0.11862  0.82085  0.22452  Biso   1.000  O
  O695     1.0000 0.82312  0.73413  0.33697  Biso   1.000  O
  O696     1.0000 0.84479  0.68674  0.35864  Biso   1.000  O
  O697     1.0000 0.82312  0.09063  0.33697  Biso   1.000  O
  O698     1.0000 0.84479  0.09468  0.35864  Biso   1.000  O
  O699     1.0000 0.75806  0.79918  0.62842  Biso   1.000  O
  O700     1.0000 0.71067  0.82085  0.63247  Biso   1.000  O
  O701     1.0000 0.11456  0.73413  0.33697  Biso   1.000  O
  O702     1.0000 0.11862  0.68674  0.35864  Biso   1.000  O
  O703     1.0000 0.82312  0.79918  0.62842  Biso   1.000  O
  O704     1.0000 0.84479  0.82085  0.63247  Biso   1.000  O
  O705     1.0000 0.82312  0.79918  0.27191  Biso   1.000  O
  O706     1.0000 0.84479  0.82085  0.22452  Biso   1.000  O
  O707     1.0000 0.75806  0.09063  0.33697  Biso   1.000  O
  O708     1.0000 0.71067  0.09468  0.35864  Biso   1.000  O
  O709     1.0000 0.93631  0.62093  0.45016  Biso   1.000  O
  O710     1.0000 0.91464  0.61688  0.42850  Biso   1.000  O
  O711     1.0000 0.64487  0.91238  0.51522  Biso   1.000  O
  O712     1.0000 0.64081  0.89071  0.56261  Biso   1.000  O
  O713     1.0000 0.00137  0.91238  0.15872  Biso   1.000  O
  O714     1.0000 0.04876  0.89071  0.15466  Biso   1.000  O
  O715     1.0000 0.93631  0.97743  0.45016  Biso   1.000  O
  O716     1.0000 0.91464  0.02482  0.42850  Biso   1.000  O
  O717     1.0000 0.93631  0.62093  0.51522  Biso   1.000  O
  O718     1.0000 0.91464  0.61688  0.56261  Biso   1.000  O
  O719     1.0000 0.00137  0.91238  0.45016  Biso   1.000  O
  O720     1.0000 0.04876  0.89071  0.42850  Biso   1.000  O
  O721     1.0000 0.64487  0.91238  0.45016  Biso   1.000  O
  O722     1.0000 0.64081  0.89071  0.42850  Biso   1.000  O
  O723     1.0000 0.93631  0.97743  0.15872  Biso   1.000  O
  O724     1.0000 0.91464  0.02482  0.15466  Biso   1.000  O
  O725     1.0000 0.00137  0.62093  0.45016  Biso   1.000  O
  O726     1.0000 0.04876  0.61688  0.42850  Biso   1.000  O
  O727     1.0000 0.93631  0.91238  0.15872  Biso   1.000  O
  O728     1.0000 0.91464  0.89071  0.15466  Biso   1.000  O
  O729     1.0000 0.93631  0.91238  0.51522  Biso   1.000  O
  O730     1.0000 0.91464  0.89071  0.56261  Biso   1.000  O
  O731     1.0000 0.64487  0.97743  0.45016  Biso   1.000  O
  O732     1.0000 0.64081  0.02482  0.42850  Biso   1.000  O
  O733     1.0000 0.11988  0.79929  0.39704  Biso   1.000  O
  O734     1.0000 0.82322  0.09595  0.20641  Biso   1.000  O
  O735     1.0000 0.88319  0.66862  0.63374  Biso   1.000  O
  O736     1.0000 0.69256  0.85926  0.33707  Biso   1.000  O
  O737     1.0000 0.11988  0.85926  0.20641  Biso   1.000  O
  O738     1.0000 0.82322  0.66862  0.39704  Biso   1.000  O
  O739     1.0000 0.88319  0.09595  0.33707  Biso   1.000  O
  O740     1.0000 0.69256  0.79929  0.63374  Biso   1.000  O
  O741     1.0000 0.11988  0.66862  0.33707  Biso   1.000  O
  O742     1.0000 0.82322  0.85926  0.63374  Biso   1.000  O
  O743     1.0000 0.88319  0.79929  0.20641  Biso   1.000  O
  O744     1.0000 0.69256  0.09595  0.39704  Biso   1.000  O
  O745     1.0000 0.93621  0.61561  0.39009  Biso   1.000  O
  O746     1.0000 0.63955  0.91227  0.58072  Biso   1.000  O
  O747     1.0000 0.06687  0.85230  0.15340  Biso   1.000  O
  O748     1.0000 0.87624  0.04293  0.45006  Biso   1.000  O
  O749     1.0000 0.87624  0.61561  0.58072  Biso   1.000  O
  O750     1.0000 0.06687  0.91227  0.39009  Biso   1.000  O
  O751     1.0000 0.63955  0.85230  0.45006  Biso   1.000  O
  O752     1.0000 0.93621  0.04293  0.15340  Biso   1.000  O
  O753     1.0000 0.06687  0.61561  0.45006  Biso   1.000  O
  O754     1.0000 0.87624  0.91227  0.15340  Biso   1.000  O
  O755     1.0000 0.93621  0.85230  0.58072  Biso   1.000  O
  O756     1.0000 0.63955  0.04293  0.39009  Biso   1.000  O
  O757     1.0000 0.63955  0.91227  0.39009  Biso   1.000  O
  O758     1.0000 0.93621  0.61561  0.58072  Biso   1.000  O
  O759     1.0000 0.87624  0.04293  0.15340  Biso   1.000  O
  O760     1.0000 0.06687  0.85230  0.45006  Biso   1.000  O
  O761     1.0000 0.63955  0.85230  0.58072  Biso   1.000  O
  O762     1.0000 0.93621  0.04293  0.39009  Biso   1.000  O
  O763     1.0000 0.87624  0.61561  0.45006  Biso   1.000  O
  O764     1.0000 0.06687  0.91227  0.15340  Biso   1.000  O
  O765     1.0000 0.63955  0.04293  0.45006  Biso   1.000  O
  O766     1.0000 0.93621  0.85230  0.15340  Biso   1.000  O
  O767     1.0000 0.87624  0.91227  0.58072  Biso   1.000  O
  O768     1.0000 0.06687  0.61561  0.39009  Biso   1.000  O
  O769     1.0000 0.82322  0.09595  0.39704  Biso   1.000  O
  O770     1.0000 0.11988  0.79929  0.20641  Biso   1.000  O
  O771     1.0000 0.69256  0.85926  0.63374  Biso   1.000  O
  O772     1.0000 0.88319  0.66862  0.33707  Biso   1.000  O
  O773     1.0000 0.88319  0.09595  0.20641  Biso   1.000  O
  O774     1.0000 0.69256  0.79929  0.39704  Biso   1.000  O
  O775     1.0000 0.11988  0.85926  0.33707  Biso   1.000  O
  O776     1.0000 0.82322  0.66862  0.63374  Biso   1.000  O
  O777     1.0000 0.69256  0.09595  0.33707  Biso   1.000  O
  O778     1.0000 0.88319  0.79929  0.63374  Biso   1.000  O
  O779     1.0000 0.82322  0.85926  0.20641  Biso   1.000  O
  O780     1.0000 0.11988  0.66862  0.39704  Biso   1.000  O
  O781     1.0000 0.62950  0.82074  0.92903  Biso   1.000  O
  O782     1.0000 0.84468  0.60557  0.64378  Biso   1.000  O
  O783     1.0000 0.91475  0.60557  0.64378  Biso   1.000  O
  O784     1.0000 0.62950  0.89082  0.85895  Biso   1.000  O
  O785     1.0000 0.62950  0.89082  0.64378  Biso   1.000  O
  O786     1.0000 0.84468  0.60557  0.92903  Biso   1.000  O
  O787     1.0000 0.91475  0.60557  0.85895  Biso   1.000  O
  O788     1.0000 0.62950  0.82074  0.64378  Biso   1.000  O
  O789     1.0000 0.62950  0.60557  0.85895  Biso   1.000  O
  O790     1.0000 0.84468  0.89082  0.64378  Biso   1.000  O
  O791     1.0000 0.91475  0.82074  0.64378  Biso   1.000  O
  O792     1.0000 0.62950  0.60557  0.92903  Biso   1.000  O
  O793     1.0000 0.11577  0.74123  0.88704  Biso   1.000  O
  O794     1.0000 0.76517  0.09183  0.77944  Biso   1.000  O
  O795     1.0000 0.87276  0.74123  0.13004  Biso   1.000  O
  O796     1.0000 0.76517  0.84882  0.77944  Biso   1.000  O
  O797     1.0000 0.11577  0.84882  0.77944  Biso   1.000  O
  O798     1.0000 0.76517  0.74123  0.88704  Biso   1.000  O
  O799     1.0000 0.87276  0.09183  0.77944  Biso   1.000  O
  O800     1.0000 0.76517  0.74123  0.13004  Biso   1.000  O
  O801     1.0000 0.11577  0.74123  0.77944  Biso   1.000  O
  O802     1.0000 0.76517  0.84882  0.13004  Biso   1.000  O
  O803     1.0000 0.87276  0.74123  0.77944  Biso   1.000  O
  O804     1.0000 0.76517  0.09183  0.88704  Biso   1.000  O
  O805     1.0000 0.99426  0.61973  0.90095  Biso   1.000  O
  O806     1.0000 0.64366  0.97033  0.00854  Biso   1.000  O
  O807     1.0000 0.99426  0.86273  0.65794  Biso   1.000  O
  O808     1.0000 0.88667  0.97033  0.00854  Biso   1.000  O
  O809     1.0000 0.88667  0.61973  0.00854  Biso   1.000  O
  O810     1.0000 0.99426  0.97033  0.90095  Biso   1.000  O
  O811     1.0000 0.64366  0.86273  0.00854  Biso   1.000  O
  O812     1.0000 0.99426  0.97033  0.65794  Biso   1.000  O
  O813     1.0000 0.99426  0.61973  0.00854  Biso   1.000  O
  O814     1.0000 0.88667  0.97033  0.65794  Biso   1.000  O
  O815     1.0000 0.99426  0.86273  0.00854  Biso   1.000  O
  O816     1.0000 0.64366  0.97033  0.90095  Biso   1.000  O
  O817     1.0000 0.11497  0.75624  0.85781  Biso   1.000  O
  O818     1.0000 0.78018  0.09103  0.79446  Biso   1.000  O
  O819     1.0000 0.84353  0.75624  0.12924  Biso   1.000  O
  O820     1.0000 0.78018  0.81960  0.79446  Biso   1.000  O
  O821     1.0000 0.11497  0.81960  0.79446  Biso   1.000  O
  O822     1.0000 0.78018  0.75624  0.85781  Biso   1.000  O
  O823     1.0000 0.84353  0.09103  0.79446  Biso   1.000  O
  O824     1.0000 0.78018  0.75624  0.12924  Biso   1.000  O
  O825     1.0000 0.11497  0.75624  0.79446  Biso   1.000  O
  O826     1.0000 0.78018  0.81960  0.12924  Biso   1.000  O
  O827     1.0000 0.84353  0.75624  0.79446  Biso   1.000  O
  O828     1.0000 0.78018  0.09103  0.85781  Biso   1.000  O
  O829     1.0000 0.97925  0.62053  0.93017  Biso   1.000  O
  O830     1.0000 0.64447  0.95531  0.99353  Biso   1.000  O
  O831     1.0000 0.97925  0.89196  0.65874  Biso   1.000  O
  O832     1.0000 0.91590  0.95531  0.99353  Biso   1.000  O
  O833     1.0000 0.91590  0.62053  0.99353  Biso   1.000  O
  O834     1.0000 0.97925  0.95531  0.93017  Biso   1.000  O
  O835     1.0000 0.64447  0.89196  0.99353  Biso   1.000  O
  O836     1.0000 0.97925  0.95531  0.65874  Biso   1.000  O
  O837     1.0000 0.97925  0.62053  0.99353  Biso   1.000  O
  O838     1.0000 0.91590  0.95531  0.65874  Biso   1.000  O
  O839     1.0000 0.97925  0.89196  0.99353  Biso   1.000  O
  O840     1.0000 0.64447  0.95531  0.93017  Biso   1.000  O
  O841     1.0000 0.11456  0.79918  0.83739  Biso   1.000  O
  O842     1.0000 0.11862  0.82085  0.85906  Biso   1.000  O
  O843     1.0000 0.82312  0.09063  0.77234  Biso   1.000  O
  O844     1.0000 0.84479  0.09468  0.72495  Biso   1.000  O
  O845     1.0000 0.82312  0.73413  0.12884  Biso   1.000  O
  O846     1.0000 0.84479  0.68674  0.13289  Biso   1.000  O
  O847     1.0000 0.75806  0.79918  0.83739  Biso   1.000  O
  O848     1.0000 0.71067  0.82085  0.85906  Biso   1.000  O
  O849     1.0000 0.11456  0.79918  0.77234  Biso   1.000  O
  O850     1.0000 0.11862  0.82085  0.72495  Biso   1.000  O
  O851     1.0000 0.82312  0.73413  0.83739  Biso   1.000  O
  O852     1.0000 0.84479  0.68674  0.85906  Biso   1.000  O
  O853     1.0000 0.82312  0.09063  0.83739  Biso   1.000  O
  O854     1.0000 0.84479  0.09468  0.85906  Biso   1.000  O
  O855     1.0000 0.75806  0.79918  0.12884  Biso   1.000  O
  O856     1.0000 0.71067  0.82085  0.13289  Biso   1.000  O
  O857     1.0000 0.11456  0.73413  0.83739  Biso   1.000  O
  O858     1.0000 0.11862  0.68674  0.85906  Biso   1.000  O
  O859     1.0000 0.82312  0.79918  0.12884  Biso   1.000  O
  O860     1.0000 0.84479  0.82085  0.13289  Biso   1.000  O
  O861     1.0000 0.82312  0.79918  0.77234  Biso   1.000  O
  O862     1.0000 0.84479  0.82085  0.72495  Biso   1.000  O
  O863     1.0000 0.75806  0.09063  0.83739  Biso   1.000  O
  O864     1.0000 0.71067  0.09468  0.85906  Biso   1.000  O
  O865     1.0000 0.93631  0.62093  0.95059  Biso   1.000  O
  O866     1.0000 0.91464  0.61688  0.92892  Biso   1.000  O
  O867     1.0000 0.64487  0.91238  0.01564  Biso   1.000  O
  O868     1.0000 0.64081  0.89071  0.06304  Biso   1.000  O
  O869     1.0000 0.00137  0.91238  0.65914  Biso   1.000  O
  O870     1.0000 0.04876  0.89071  0.65509  Biso   1.000  O
  O871     1.0000 0.93631  0.97743  0.95059  Biso   1.000  O
  O872     1.0000 0.91464  0.02482  0.92892  Biso   1.000  O
  O873     1.0000 0.93631  0.62093  0.01564  Biso   1.000  O
  O874     1.0000 0.91464  0.61688  0.06304  Biso   1.000  O
  O875     1.0000 0.00137  0.91238  0.95059  Biso   1.000  O
  O876     1.0000 0.04876  0.89071  0.92892  Biso   1.000  O
  O877     1.0000 0.64487  0.91238  0.95059  Biso   1.000  O
  O878     1.0000 0.64081  0.89071  0.92892  Biso   1.000  O
  O879     1.0000 0.93631  0.97743  0.65914  Biso   1.000  O
  O880     1.0000 0.91464  0.02482  0.65509  Biso   1.000  O
  O881     1.0000 0.00137  0.62093  0.95059  Biso   1.000  O
  O882     1.0000 0.04876  0.61688  0.92892  Biso   1.000  O
  O883     1.0000 0.93631  0.91238  0.65914  Biso   1.000  O
  O884     1.0000 0.91464  0.89071  0.65509  Biso   1.000  O
  O885     1.0000 0.93631  0.91238  0.01564  Biso   1.000  O
  O886     1.0000 0.91464  0.89071  0.06304  Biso   1.000  O
  O887     1.0000 0.64487  0.97743  0.95059  Biso   1.000  O
  O888     1.0000 0.64081  0.02482  0.92892  Biso   1.000  O
  O889     1.0000 0.11988  0.79929  0.89747  Biso   1.000  O
  O890     1.0000 0.82322  0.09595  0.70684  Biso   1.000  O
  O891     1.0000 0.88319  0.66862  0.13416  Biso   1.000  O
  O892     1.0000 0.69256  0.85926  0.83750  Biso   1.000  O
  O893     1.0000 0.11988  0.85926  0.70684  Biso   1.000  O
  O894     1.0000 0.82322  0.66862  0.89747  Biso   1.000  O
  O895     1.0000 0.88319  0.09595  0.83750  Biso   1.000  O
  O896     1.0000 0.69256  0.79929  0.13416  Biso   1.000  O
  O897     1.0000 0.11988  0.66862  0.83750  Biso   1.000  O
  O898     1.0000 0.82322  0.85926  0.13416  Biso   1.000  O
  O899     1.0000 0.88319  0.79929  0.70684  Biso   1.000  O
  O900     1.0000 0.69256  0.09595  0.89747  Biso   1.000  O
  O901     1.0000 0.93621  0.61561  0.89051  Biso   1.000  O
  O902     1.0000 0.63955  0.91227  0.08115  Biso   1.000  O
  O903     1.0000 0.06687  0.85230  0.65382  Biso   1.000  O
  O904     1.0000 0.87624  0.04293  0.95048  Biso   1.000  O
  O905     1.0000 0.87624  0.61561  0.08115  Biso   1.000  O
  O906     1.0000 0.06687  0.91227  0.89051  Biso   1.000  O
  O907     1.0000 0.63955  0.85230  0.95048  Biso   1.000  O
  O908     1.0000 0.93621  0.04293  0.65382  Biso   1.000  O
  O909     1.0000 0.06687  0.61561  0.95048  Biso   1.000  O
  O910     1.0000 0.87624  0.91227  0.65382  Biso   1.000  O
  O911     1.0000 0.93621  0.85230  0.08115  Biso   1.000  O
  O912     1.0000 0.63955  0.04293  0.89051  Biso   1.000  O
  O913     1.0000 0.63955  0.91227  0.89051  Biso   1.000  O
  O914     1.0000 0.93621  0.61561  0.08115  Biso   1.000  O
  O915     1.0000 0.87624  0.04293  0.65382  Biso   1.000  O
  O916     1.0000 0.06687  0.85230  0.95048  Biso   1.000  O
  O917     1.0000 0.63955  0.85230  0.08115  Biso   1.000  O
  O918     1.0000 0.93621  0.04293  0.89051  Biso   1.000  O
  O919     1.0000 0.87624  0.61561  0.95048  Biso   1.000  O
  O920     1.0000 0.06687  0.91227  0.65382  Biso   1.000  O
  O921     1.0000 0.63955  0.04293  0.95048  Biso   1.000  O
  O922     1.0000 0.93621  0.85230  0.65382  Biso   1.000  O
  O923     1.0000 0.87624  0.91227  0.08115  Biso   1.000  O
  O924     1.0000 0.06687  0.61561  0.89051  Biso   1.000  O
  O925     1.0000 0.82322  0.09595  0.89747  Biso   1.000  O
  O926     1.0000 0.11988  0.79929  0.70684  Biso   1.000  O
  O927     1.0000 0.69256  0.85926  0.13416  Biso   1.000  O
  O928     1.0000 0.88319  0.66862  0.83750  Biso   1.000  O
  O929     1.0000 0.88319  0.09595  0.70684  Biso   1.000  O
  O930     1.0000 0.69256  0.79929  0.89747  Biso   1.000  O
  O931     1.0000 0.11988  0.85926  0.83750  Biso   1.000  O
  O932     1.0000 0.82322  0.66862  0.13416  Biso   1.000  O
  O933     1.0000 0.69256  0.09595  0.83750  Biso   1.000  O
  O934     1.0000 0.88319  0.79929  0.13416  Biso   1.000  O
  O935     1.0000 0.82322  0.85926  0.70684  Biso   1.000  O
  O936     1.0000 0.11988  0.66862  0.89747  Biso   1.000  O
  O937     1.0000 0.62950  0.32116  0.42861  Biso   1.000  O
  O938     1.0000 0.84468  0.10599  0.14335  Biso   1.000  O
  O939     1.0000 0.91475  0.10599  0.14335  Biso   1.000  O
  O940     1.0000 0.62950  0.39124  0.35853  Biso   1.000  O
  O941     1.0000 0.62950  0.39124  0.14335  Biso   1.000  O
  O942     1.0000 0.84468  0.10599  0.42861  Biso   1.000  O
  O943     1.0000 0.91475  0.10599  0.35853  Biso   1.000  O
  O944     1.0000 0.62950  0.32116  0.14335  Biso   1.000  O
  O945     1.0000 0.62950  0.10599  0.35853  Biso   1.000  O
  O946     1.0000 0.84468  0.39124  0.14335  Biso   1.000  O
  O947     1.0000 0.91475  0.32116  0.14335  Biso   1.000  O
  O948     1.0000 0.62950  0.10599  0.42861  Biso   1.000  O
  O949     1.0000 0.11577  0.24166  0.38661  Biso   1.000  O
  O950     1.0000 0.76517  0.59225  0.27902  Biso   1.000  O
  O951     1.0000 0.87276  0.24166  0.62962  Biso   1.000  O
  O952     1.0000 0.76517  0.34925  0.27902  Biso   1.000  O
  O953     1.0000 0.11577  0.34925  0.27902  Biso   1.000  O
  O954     1.0000 0.76517  0.24166  0.38661  Biso   1.000  O
  O955     1.0000 0.87276  0.59225  0.27902  Biso   1.000  O
  O956     1.0000 0.76517  0.24166  0.62962  Biso   1.000  O
  O957     1.0000 0.11577  0.24166  0.27902  Biso   1.000  O
  O958     1.0000 0.76517  0.34925  0.62962  Biso   1.000  O
  O959     1.0000 0.87276  0.24166  0.27902  Biso   1.000  O
  O960     1.0000 0.76517  0.59225  0.38661  Biso   1.000  O
  O961     1.0000 0.99426  0.12015  0.40052  Biso   1.000  O
  O962     1.0000 0.64366  0.47075  0.50811  Biso   1.000  O
  O963     1.0000 0.99426  0.36316  0.15752  Biso   1.000  O
  O964     1.0000 0.88667  0.47075  0.50811  Biso   1.000  O
  O965     1.0000 0.88667  0.12015  0.50811  Biso   1.000  O
  O966     1.0000 0.99426  0.47075  0.40052  Biso   1.000  O
  O967     1.0000 0.64366  0.36316  0.50811  Biso   1.000  O
  O968     1.0000 0.99426  0.47075  0.15752  Biso   1.000  O
  O969     1.0000 0.99426  0.12015  0.50811  Biso   1.000  O
  O970     1.0000 0.88667  0.47075  0.15752  Biso   1.000  O
  O971     1.0000 0.99426  0.36316  0.50811  Biso   1.000  O
  O972     1.0000 0.64366  0.47075  0.40052  Biso   1.000  O
  O973     1.0000 0.11497  0.25667  0.35739  Biso   1.000  O
  O974     1.0000 0.78018  0.59145  0.29403  Biso   1.000  O
  O975     1.0000 0.84353  0.25667  0.62882  Biso   1.000  O
  O976     1.0000 0.78018  0.32002  0.29403  Biso   1.000  O
  O977     1.0000 0.11497  0.32002  0.29403  Biso   1.000  O
  O978     1.0000 0.78018  0.25667  0.35739  Biso   1.000  O
  O979     1.0000 0.84353  0.59145  0.29403  Biso   1.000  O
  O980     1.0000 0.78018  0.25667  0.62882  Biso   1.000  O
  O981     1.0000 0.11497  0.25667  0.29403  Biso   1.000  O
  O982     1.0000 0.78018  0.32002  0.62882  Biso   1.000  O
  O983     1.0000 0.84353  0.25667  0.29403  Biso   1.000  O
  O984     1.0000 0.78018  0.59145  0.35739  Biso   1.000  O
  O985     1.0000 0.97925  0.12095  0.42975  Biso   1.000  O
  O986     1.0000 0.64447  0.45574  0.49310  Biso   1.000  O
  O987     1.0000 0.97925  0.39238  0.15832  Biso   1.000  O
  O988     1.0000 0.91590  0.45574  0.49310  Biso   1.000  O
  O989     1.0000 0.91590  0.12095  0.49310  Biso   1.000  O
  O990     1.0000 0.97925  0.45574  0.42975  Biso   1.000  O
  O991     1.0000 0.64447  0.39238  0.49310  Biso   1.000  O
  O992     1.0000 0.97925  0.45574  0.15832  Biso   1.000  O
  O993     1.0000 0.97925  0.12095  0.49310  Biso   1.000  O
  O994     1.0000 0.91590  0.45574  0.15832  Biso   1.000  O
  O995     1.0000 0.97925  0.39238  0.49310  Biso   1.000  O
  O996     1.0000 0.64447  0.45574  0.42975  Biso   1.000  O
  O997     1.0000 0.11456  0.29961  0.33697  Biso   1.000  O
  O998     1.0000 0.11862  0.32127  0.35864  Biso   1.000  O
  O999     1.0000 0.82312  0.59105  0.27191  Biso   1.000  O
  O1000    1.0000 0.84479  0.59511  0.22452  Biso   1.000  O
  O1001    1.0000 0.82312  0.23455  0.62842  Biso   1.000  O
  O1002    1.0000 0.84479  0.18716  0.63247  Biso   1.000  O
  O1003    1.0000 0.75806  0.29961  0.33697  Biso   1.000  O
  O1004    1.0000 0.71067  0.32127  0.35864  Biso   1.000  O
  O1005    1.0000 0.11456  0.29961  0.27191  Biso   1.000  O
  O1006    1.0000 0.11862  0.32127  0.22452  Biso   1.000  O
  O1007    1.0000 0.82312  0.23455  0.33697  Biso   1.000  O
  O1008    1.0000 0.84479  0.18716  0.35864  Biso   1.000  O
  O1009    1.0000 0.82312  0.59105  0.33697  Biso   1.000  O
  O1010    1.0000 0.84479  0.59511  0.35864  Biso   1.000  O
  O1011    1.0000 0.75806  0.29961  0.62842  Biso   1.000  O
  O1012    1.0000 0.71067  0.32127  0.63247  Biso   1.000  O
  O1013    1.0000 0.11456  0.23455  0.33697  Biso   1.000  O
  O1014    1.0000 0.11862  0.18716  0.35864  Biso   1.000  O
  O1015    1.0000 0.82312  0.29961  0.62842  Biso   1.000  O
  O1016    1.0000 0.84479  0.32127  0.63247  Biso   1.000  O
  O1017    1.0000 0.82312  0.29961  0.27191  Biso   1.000  O
  O1018    1.0000 0.84479  0.32127  0.22452  Biso   1.000  O
  O1019    1.0000 0.75806  0.59105  0.33697  Biso   1.000  O
  O1020    1.0000 0.71067  0.59511  0.35864  Biso   1.000  O
  O1021    1.0000 0.93631  0.12135  0.45016  Biso   1.000  O
  O1022    1.0000 0.91464  0.11730  0.42850  Biso   1.000  O
  O1023    1.0000 0.64487  0.41280  0.51522  Biso   1.000  O
  O1024    1.0000 0.64081  0.39113  0.56261  Biso   1.000  O
  O1025    1.0000 0.00137  0.41280  0.15872  Biso   1.000  O
  O1026    1.0000 0.04876  0.39113  0.15466  Biso   1.000  O
  O1027    1.0000 0.93631  0.47786  0.45016  Biso   1.000  O
  O1028    1.0000 0.91464  0.52525  0.42850  Biso   1.000  O
  O1029    1.0000 0.93631  0.12135  0.51522  Biso   1.000  O
  O1030    1.0000 0.91464  0.11730  0.56261  Biso   1.000  O
  O1031    1.0000 0.00137  0.41280  0.45016  Biso   1.000  O
  O1032    1.0000 0.04876  0.39113  0.42850  Biso   1.000  O
  O1033    1.0000 0.64487  0.41280  0.45016  Biso   1.000  O
  O1034    1.0000 0.64081  0.39113  0.42850  Biso   1.000  O
  O1035    1.0000 0.93631  0.47786  0.15872  Biso   1.000  O
  O1036    1.0000 0.91464  0.52525  0.15466  Biso   1.000  O
  O1037    1.0000 0.00137  0.12135  0.45016  Biso   1.000  O
  O1038    1.0000 0.04876  0.11730  0.42850  Biso   1.000  O
  O1039    1.0000 0.93631  0.41280  0.15872  Biso   1.000  O
  O1040    1.0000 0.91464  0.39113  0.15466  Biso   1.000  O
  O1041    1.0000 0.93631  0.41280  0.51522  Biso   1.000  O
  O1042    1.0000 0.91464  0.39113  0.56261  Biso   1.000  O
  O1043    1.0000 0.64487  0.47786  0.45016  Biso   1.000  O
  O1044    1.0000 0.64081  0.52525  0.42850  Biso   1.000  O
  O1045    1.0000 0.11988  0.29971  0.39704  Biso   1.000  O
  O1046    1.0000 0.82322  0.59637  0.20641  Biso   1.000  O
  O1047    1.0000 0.88319  0.16905  0.63374  Biso   1.000  O
  O1048    1.0000 0.69256  0.35968  0.33707  Biso   1.000  O
  O1049    1.0000 0.11988  0.35968  0.20641  Biso   1.000  O
  O1050    1.0000 0.82322  0.16905  0.39704  Biso   1.000  O
  O1051    1.0000 0.88319  0.59637  0.33707  Biso   1.000  O
  O1052    1.0000 0.69256  0.29971  0.63374  Biso   1.000  O
  O1053    1.0000 0.11988  0.16905  0.33707  Biso   1.000  O
  O1054    1.0000 0.82322  0.35968  0.63374  Biso   1.000  O
  O1055    1.0000 0.88319  0.29971  0.20641  Biso   1.000  O
  O1056    1.0000 0.69256  0.59637  0.39704  Biso   1.000  O
  O1057    1.0000 0.93621  0.11603  0.39009  Biso   1.000  O
  O1058    1.0000 0.63955  0.41270  0.58072  Biso   1.000  O
  O1059    1.0000 0.06687  0.35273  0.15340  Biso   1.000  O
  O1060    1.0000 0.87624  0.54336  0.45006  Biso   1.000  O
  O1061    1.0000 0.87624  0.11603  0.58072  Biso   1.000  O
  O1062    1.0000 0.06687  0.41270  0.39009  Biso   1.000  O
  O1063    1.0000 0.63955  0.35273  0.45006  Biso   1.000  O
  O1064    1.0000 0.93621  0.54336  0.15340  Biso   1.000  O
  O1065    1.0000 0.06687  0.11603  0.45006  Biso   1.000  O
  O1066    1.0000 0.87624  0.41270  0.15340  Biso   1.000  O
  O1067    1.0000 0.93621  0.35273  0.58072  Biso   1.000  O
  O1068    1.0000 0.63955  0.54336  0.39009  Biso   1.000  O
  O1069    1.0000 0.63955  0.41270  0.39009  Biso   1.000  O
  O1070    1.0000 0.93621  0.11603  0.58072  Biso   1.000  O
  O1071    1.0000 0.87624  0.54336  0.15340  Biso   1.000  O
  O1072    1.0000 0.06687  0.35273  0.45006  Biso   1.000  O
  O1073    1.0000 0.63955  0.35273  0.58072  Biso   1.000  O
  O1074    1.0000 0.93621  0.54336  0.39009  Biso   1.000  O
  O1075    1.0000 0.87624  0.11603  0.45006  Biso   1.000  O
  O1076    1.0000 0.06687  0.41270  0.15340  Biso   1.000  O
  O1077    1.0000 0.63955  0.54336  0.45006  Biso   1.000  O
  O1078    1.0000 0.93621  0.35273  0.15340  Biso   1.000  O
  O1079    1.0000 0.87624  0.41270  0.58072  Biso   1.000  O
  O1080    1.0000 0.06687  0.11603  0.39009  Biso   1.000  O
  O1081    1.0000 0.82322  0.59637  0.39704  Biso   1.000  O
  O1082    1.0000 0.11988  0.29971  0.20641  Biso   1.000  O
  O1083    1.0000 0.69256  0.35968  0.63374  Biso   1.000  O
  O1084    1.0000 0.88319  0.16905  0.33707  Biso   1.000  O
  O1085    1.0000 0.88319  0.59637  0.20641  Biso   1.000  O
  O1086    1.0000 0.69256  0.29971  0.39704  Biso   1.000  O
  O1087    1.0000 0.11988  0.35968  0.33707  Biso   1.000  O
  O1088    1.0000 0.82322  0.16905  0.63374  Biso   1.000  O
  O1089    1.0000 0.69256  0.59637  0.33707  Biso   1.000  O
  O1090    1.0000 0.88319  0.29971  0.63374  Biso   1.000  O
  O1091    1.0000 0.82322  0.35968  0.20641  Biso   1.000  O
  O1092    1.0000 0.11988  0.16905  0.39704  Biso   1.000  O
  O1093    1.0000 0.62950  0.32116  0.92903  Biso   1.000  O
  O1094    1.0000 0.84468  0.10599  0.64378  Biso   1.000  O
  O1095    1.0000 0.91475  0.10599  0.64378  Biso   1.000  O
  O1096    1.0000 0.62950  0.39124  0.85895  Biso   1.000  O
  O1097    1.0000 0.62950  0.39124  0.64378  Biso   1.000  O
  O1098    1.0000 0.84468  0.10599  0.92903  Biso   1.000  O
  O1099    1.0000 0.91475  0.10599  0.85895  Biso   1.000  O
  O1100    1.0000 0.62950  0.32116  0.64378  Biso   1.000  O
  O1101    1.0000 0.62950  0.10599  0.85895  Biso   1.000  O
  O1102    1.0000 0.84468  0.39124  0.64378  Biso   1.000  O
  O1103    1.0000 0.91475  0.32116  0.64378  Biso   1.000  O
  O1104    1.0000 0.62950  0.10599  0.92903  Biso   1.000  O
  O1105    1.0000 0.11577  0.24166  0.88704  Biso   1.000  O
  O1106    1.0000 0.76517  0.59225  0.77944  Biso   1.000  O
  O1107    1.0000 0.87276  0.24166  0.13004  Biso   1.000  O
  O1108    1.0000 0.76517  0.34925  0.77944  Biso   1.000  O
  O1109    1.0000 0.11577  0.34925  0.77944  Biso   1.000  O
  O1110    1.0000 0.76517  0.24166  0.88704  Biso   1.000  O
  O1111    1.0000 0.87276  0.59225  0.77944  Biso   1.000  O
  O1112    1.0000 0.76517  0.24166  0.13004  Biso   1.000  O
  O1113    1.0000 0.11577  0.24166  0.77944  Biso   1.000  O
  O1114    1.0000 0.76517  0.34925  0.13004  Biso   1.000  O
  O1115    1.0000 0.87276  0.24166  0.77944  Biso   1.000  O
  O1116    1.0000 0.76517  0.59225  0.88704  Biso   1.000  O
  O1117    1.0000 0.99426  0.12015  0.90095  Biso   1.000  O
  O1118    1.0000 0.64366  0.47075  0.00854  Biso   1.000  O
  O1119    1.0000 0.99426  0.36316  0.65794  Biso   1.000  O
  O1120    1.0000 0.88667  0.47075  0.00854  Biso   1.000  O
  O1121    1.0000 0.88667  0.12015  0.00854  Biso   1.000  O
  O1122    1.0000 0.99426  0.47075  0.90095  Biso   1.000  O
  O1123    1.0000 0.64366  0.36316  0.00854  Biso   1.000  O
  O1124    1.0000 0.99426  0.47075  0.65794  Biso   1.000  O
  O1125    1.0000 0.99426  0.12015  0.00854  Biso   1.000  O
  O1126    1.0000 0.88667  0.47075  0.65794  Biso   1.000  O
  O1127    1.0000 0.99426  0.36316  0.00854  Biso   1.000  O
  O1128    1.0000 0.64366  0.47075  0.90095  Biso   1.000  O
  O1129    1.0000 0.11497  0.25667  0.85781  Biso   1.000  O
  O1130    1.0000 0.78018  0.59145  0.79446  Biso   1.000  O
  O1131    1.0000 0.84353  0.25667  0.12924  Biso   1.000  O
  O1132    1.0000 0.78018  0.32002  0.79446  Biso   1.000  O
  O1133    1.0000 0.11497  0.32002  0.79446  Biso   1.000  O
  O1134    1.0000 0.78018  0.25667  0.85781  Biso   1.000  O
  O1135    1.0000 0.84353  0.59145  0.79446  Biso   1.000  O
  O1136    1.0000 0.78018  0.25667  0.12924  Biso   1.000  O
  O1137    1.0000 0.11497  0.25667  0.79446  Biso   1.000  O
  O1138    1.0000 0.78018  0.32002  0.12924  Biso   1.000  O
  O1139    1.0000 0.84353  0.25667  0.79446  Biso   1.000  O
  O1140    1.0000 0.78018  0.59145  0.85781  Biso   1.000  O
  O1141    1.0000 0.97925  0.12095  0.93017  Biso   1.000  O
  O1142    1.0000 0.64447  0.45574  0.99353  Biso   1.000  O
  O1143    1.0000 0.97925  0.39238  0.65874  Biso   1.000  O
  O1144    1.0000 0.91590  0.45574  0.99353  Biso   1.000  O
  O1145    1.0000 0.91590  0.12095  0.99353  Biso   1.000  O
  O1146    1.0000 0.97925  0.45574  0.93017  Biso   1.000  O
  O1147    1.0000 0.64447  0.39238  0.99353  Biso   1.000  O
  O1148    1.0000 0.97925  0.45574  0.65874  Biso   1.000  O
  O1149    1.0000 0.97925  0.12095  0.99353  Biso   1.000  O
  O1150    1.0000 0.91590  0.45574  0.65874  Biso   1.000  O
  O1151    1.0000 0.97925  0.39238  0.99353  Biso   1.000  O
  O1152    1.0000 0.64447  0.45574  0.93017  Biso   1.000  O
  O1153    1.0000 0.11456  0.29961  0.83739  Biso   1.000  O
  O1154    1.0000 0.11862  0.32127  0.85906  Biso   1.000  O
  O1155    1.0000 0.82312  0.59105  0.77234  Biso   1.000  O
  O1156    1.0000 0.84479  0.59511  0.72495  Biso   1.000  O
  O1157    1.0000 0.82312  0.23455  0.12884  Biso   1.000  O
  O1158    1.0000 0.84479  0.18716  0.13289  Biso   1.000  O
  O1159    1.0000 0.75806  0.29961  0.83739  Biso   1.000  O
  O1160    1.0000 0.71067  0.32127  0.85906  Biso   1.000  O
  O1161    1.0000 0.11456  0.29961  0.77234  Biso   1.000  O
  O1162    1.0000 0.11862  0.32127  0.72495  Biso   1.000  O
  O1163    1.0000 0.82312  0.23455  0.83739  Biso   1.000  O
  O1164    1.0000 0.84479  0.18716  0.85906  Biso   1.000  O
  O1165    1.0000 0.82312  0.59105  0.83739  Biso   1.000  O
  O1166    1.0000 0.84479  0.59511  0.85906  Biso   1.000  O
  O1167    1.0000 0.75806  0.29961  0.12884  Biso   1.000  O
  O1168    1.0000 0.71067  0.32127  0.13289  Biso   1.000  O
  O1169    1.0000 0.11456  0.23455  0.83739  Biso   1.000  O
  O1170    1.0000 0.11862  0.18716  0.85906  Biso   1.000  O
  O1171    1.0000 0.82312  0.29961  0.12884  Biso   1.000  O
  O1172    1.0000 0.84479  0.32127  0.13289  Biso   1.000  O
  O1173    1.0000 0.82312  0.29961  0.77234  Biso   1.000  O
  O1174    1.0000 0.84479  0.32127  0.72495  Biso   1.000  O
  O1175    1.0000 0.75806  0.59105  0.83739  Biso   1.000  O
  O1176    1.0000 0.71067  0.59511  0.85906  Biso   1.000  O
  O1177    1.0000 0.93631  0.12135  0.95059  Biso   1.000  O
  O1178    1.0000 0.91464  0.11730  0.92892  Biso   1.000  O
  O1179    1.0000 0.64487  0.41280  0.01564  Biso   1.000  O
  O1180    1.0000 0.64081  0.39113  0.06304  Biso   1.000  O
  O1181    1.0000 0.00137  0.41280  0.65914  Biso   1.000  O
  O1182    1.0000 0.04876  0.39113  0.65509  Biso   1.000  O
  O1183    1.0000 0.93631  0.47786  0.95059  Biso   1.000  O
  O1184    1.0000 0.91464  0.52525  0.92892  Biso   1.000  O
  O1185    1.0000 0.93631  0.12135  0.01564  Biso   1.000  O
  O1186    1.0000 0.91464  0.11730  0.06304  Biso   1.000  O
  O1187    1.0000 0.00137  0.41280  0.95059  Biso   1.000  O
  O1188    1.0000 0.04876  0.39113  0.92892  Biso   1.000  O
  O1189    1.0000 0.64487  0.41280  0.95059  Biso   1.000  O
  O1190    1.0000 0.64081  0.39113  0.92892  Biso   1.000  O
  O1191    1.0000 0.93631  0.47786  0.65914  Biso   1.000  O
  O1192    1.0000 0.91464  0.52525  0.65509  Biso   1.000  O
  O1193    1.0000 0.00137  0.12135  0.95059  Biso   1.000  O
  O1194    1.0000 0.04876  0.11730  0.92892  Biso   1.000  O
  O1195    1.0000 0.93631  0.41280  0.65914  Biso   1.000  O
  O1196    1.0000 0.91464  0.39113  0.65509  Biso   1.000  O
  O1197    1.0000 0.93631  0.41280  0.01564  Biso   1.000  O
  O1198    1.0000 0.91464  0.39113  0.06304  Biso   1.000  O
  O1199    1.0000 0.64487  0.47786  0.95059  Biso   1.000  O
  O1200    1.0000 0.64081  0.52525  0.92892  Biso   1.000  O
  O1201    1.0000 0.11988  0.29971  0.89747  Biso   1.000  O
  O1202    1.0000 0.82322  0.59637  0.70684  Biso   1.000  O
  O1203    1.0000 0.88319  0.16905  0.13416  Biso   1.000  O
  O1204    1.0000 0.69256  0.35968  0.83750  Biso   1.000  O
  O1205    1.0000 0.11988  0.35968  0.70684  Biso   1.000  O
  O1206    1.0000 0.82322  0.16905  0.89747  Biso   1.000  O
  O1207    1.0000 0.88319  0.59637  0.83750  Biso   1.000  O
  O1208    1.0000 0.69256  0.29971  0.13416  Biso   1.000  O
  O1209    1.0000 0.11988  0.16905  0.83750  Biso   1.000  O
  O1210    1.0000 0.82322  0.35968  0.13416  Biso   1.000  O
  O1211    1.0000 0.88319  0.29971  0.70684  Biso   1.000  O
  O1212    1.0000 0.69256  0.59637  0.89747  Biso   1.000  O
  O1213    1.0000 0.93621  0.11603  0.89051  Biso   1.000  O
  O1214    1.0000 0.63955  0.41270  0.08115  Biso   1.000  O
  O1215    1.0000 0.06687  0.35273  0.65382  Biso   1.000  O
  O1216    1.0000 0.87624  0.54336  0.95048  Biso   1.000  O
  O1217    1.0000 0.87624  0.11603  0.08115  Biso   1.000  O
  O1218    1.0000 0.06687  0.41270  0.89051  Biso   1.000  O
  O1219    1.0000 0.63955  0.35273  0.95048  Biso   1.000  O
  O1220    1.0000 0.93621  0.54336  0.65382  Biso   1.000  O
  O1221    1.0000 0.06687  0.11603  0.95048  Biso   1.000  O
  O1222    1.0000 0.87624  0.41270  0.65382  Biso   1.000  O
  O1223    1.0000 0.93621  0.35273  0.08115  Biso   1.000  O
  O1224    1.0000 0.63955  0.54336  0.89051  Biso   1.000  O
  O1225    1.0000 0.63955  0.41270  0.89051  Biso   1.000  O
  O1226    1.0000 0.93621  0.11603  0.08115  Biso   1.000  O
  O1227    1.0000 0.87624  0.54336  0.65382  Biso   1.000  O
  O1228    1.0000 0.06687  0.35273  0.95048  Biso   1.000  O
  O1229    1.0000 0.63955  0.35273  0.08115  Biso   1.000  O
  O1230    1.0000 0.93621  0.54336  0.89051  Biso   1.000  O
  O1231    1.0000 0.87624  0.11603  0.95048  Biso   1.000  O
  O1232    1.0000 0.06687  0.41270  0.65382  Biso   1.000  O
  O1233    1.0000 0.63955  0.54336  0.95048  Biso   1.000  O
  O1234    1.0000 0.93621  0.35273  0.65382  Biso   1.000  O
  O1235    1.0000 0.87624  0.41270  0.08115  Biso   1.000  O
  O1236    1.0000 0.06687  0.11603  0.89051  Biso   1.000  O
  O1237    1.0000 0.82322  0.59637  0.89747  Biso   1.000  O
  O1238    1.0000 0.11988  0.29971  0.70684  Biso   1.000  O
  O1239    1.0000 0.69256  0.35968  0.13416  Biso   1.000  O
  O1240    1.0000 0.88319  0.16905  0.83750  Biso   1.000  O
  O1241    1.0000 0.88319  0.59637  0.70684  Biso   1.000  O
  O1242    1.0000 0.69256  0.29971  0.89747  Biso   1.000  O
  O1243    1.0000 0.11988  0.35968  0.83750  Biso   1.000  O
  O1244    1.0000 0.82322  0.16905  0.13416  Biso   1.000  O
  O1245    1.0000 0.69256  0.59637  0.83750  Biso   1.000  O
  O1246    1.0000 0.88319  0.29971  0.13416  Biso   1.000  O
  O1247    1.0000 0.82322  0.35968  0.70684  Biso   1.000  O
  O1248    1.0000 0.11988  0.16905  0.89747  Biso   1.000  O
