data_image0
_cell_length_a       25.6415
_cell_length_b       25.6415
_cell_length_c       25.6415
_cell_angle_alpha    90
_cell_angle_beta     90
_cell_angle_gamma    90

_symmetry_space_group_name_H-M    "P 1"
_symmetry_int_tables_number       1

loop_
  _symmetry_equiv_pos_as_xyz
  'x, y, z'

loop_
  _atom_site_label
  _atom_site_occupancy
  _atom_site_fract_x
  _atom_site_fract_y
  _atom_site_fract_z
  _atom_site_thermal_displace_type
  _atom_site_B_iso_or_equiv
  _atom_site_type_symbol
  C1       1.0000 0.62500  0.37500  0.87500  Biso   1.000  C
  C2       1.0000 0.87500  0.62500  0.37500  Biso   1.000  C
  C3       1.0000 0.37500  0.87500  0.62500  Biso   1.000  C
  C4       1.0000 0.12500  0.12500  0.12500  Biso   1.000  C
  C5       1.0000 0.54498  0.45502  0.95502  Biso   1.000  C
  C6       1.0000 0.95502  0.54498  0.45502  Biso   1.000  C
  C7       1.0000 0.45502  0.95502  0.54498  Biso   1.000  C
  C8       1.0000 0.04498  0.04498  0.04498  Biso   1.000  C
  C9       1.0000 0.70502  0.29498  0.79498  Biso   1.000  C
  C10      1.0000 0.79498  0.70502  0.29498  Biso   1.000  C
  C11      1.0000 0.20502  0.20502  0.20502  Biso   1.000  C
  C12      1.0000 0.29498  0.79498  0.70502  Biso   1.000  C
  C13      1.0000 0.73350  0.42770  0.13400  Biso   1.000  C
  C14      1.0000 0.66700  0.45070  0.07640  Biso   1.000  C
  C15      1.0000 0.68770  0.31650  0.00050  Biso   1.000  C
  C16      1.0000 0.75520  0.29410  0.05610  Biso   1.000  C
  C17      1.0000 0.76650  0.57230  0.63400  Biso   1.000  C
  C18      1.0000 0.83300  0.54930  0.57640  Biso   1.000  C
  C19      1.0000 0.81230  0.68350  0.50050  Biso   1.000  C
  C20      1.0000 0.74480  0.70590  0.55610  Biso   1.000  C
  C21      1.0000 0.26650  0.92770  0.36600  Biso   1.000  C
  C22      1.0000 0.33300  0.95070  0.42360  Biso   1.000  C
  C23      1.0000 0.31230  0.81650  0.49950  Biso   1.000  C
  C24      1.0000 0.24480  0.79410  0.44390  Biso   1.000  C
  C25      1.0000 0.23350  0.07230  0.86600  Biso   1.000  C
  C26      1.0000 0.16700  0.04930  0.92360  Biso   1.000  C
  C27      1.0000 0.18770  0.18350  0.99950  Biso   1.000  C
  C28      1.0000 0.25520  0.20590  0.94390  Biso   1.000  C
  C29      1.0000 0.13400  0.73350  0.42770  Biso   1.000  C
  C30      1.0000 0.07640  0.66700  0.45070  Biso   1.000  C
  C31      1.0000 0.00050  0.68770  0.31650  Biso   1.000  C
  C32      1.0000 0.05610  0.75520  0.29410  Biso   1.000  C
  C33      1.0000 0.63400  0.76650  0.57230  Biso   1.000  C
  C34      1.0000 0.57640  0.83300  0.54930  Biso   1.000  C
  C35      1.0000 0.50050  0.81230  0.68350  Biso   1.000  C
  C36      1.0000 0.55610  0.74480  0.70590  Biso   1.000  C
  C37      1.0000 0.36600  0.26650  0.92770  Biso   1.000  C
  C38      1.0000 0.42360  0.33300  0.95070  Biso   1.000  C
  C39      1.0000 0.49950  0.31230  0.81650  Biso   1.000  C
  C40      1.0000 0.44390  0.24480  0.79410  Biso   1.000  C
  C41      1.0000 0.86600  0.23350  0.07230  Biso   1.000  C
  C42      1.0000 0.92360  0.16700  0.04930  Biso   1.000  C
  C43      1.0000 0.99950  0.18770  0.18350  Biso   1.000  C
  C44      1.0000 0.94390  0.25520  0.20590  Biso   1.000  C
  C45      1.0000 0.42770  0.13400  0.73350  Biso   1.000  C
  C46      1.0000 0.45070  0.07640  0.66700  Biso   1.000  C
  C47      1.0000 0.31650  0.00050  0.68770  Biso   1.000  C
  C48      1.0000 0.29410  0.05610  0.75520  Biso   1.000  C
  C49      1.0000 0.57230  0.63400  0.76650  Biso   1.000  C
  C50      1.0000 0.54930  0.57640  0.83300  Biso   1.000  C
  C51      1.0000 0.68350  0.50050  0.81230  Biso   1.000  C
  C52      1.0000 0.70590  0.55610  0.74480  Biso   1.000  C
  C53      1.0000 0.92770  0.36600  0.26650  Biso   1.000  C
  C54      1.0000 0.95070  0.42360  0.33300  Biso   1.000  C
  C55      1.0000 0.81650  0.49950  0.31230  Biso   1.000  C
  C56      1.0000 0.79410  0.44390  0.24480  Biso   1.000  C
  C57      1.0000 0.07230  0.86600  0.23350  Biso   1.000  C
  C58      1.0000 0.04930  0.92360  0.16700  Biso   1.000  C
  C59      1.0000 0.18350  0.99950  0.18770  Biso   1.000  C
  C60      1.0000 0.20590  0.94390  0.25520  Biso   1.000  C
  C61      1.0000 0.67770  0.48350  0.61600  Biso   1.000  C
  C62      1.0000 0.70070  0.41700  0.67360  Biso   1.000  C
  C63      1.0000 0.56650  0.43770  0.74950  Biso   1.000  C
  C64      1.0000 0.54410  0.50520  0.69390  Biso   1.000  C
  C65      1.0000 0.82230  0.51650  0.11600  Biso   1.000  C
  C66      1.0000 0.79930  0.58300  0.17360  Biso   1.000  C
  C67      1.0000 0.93350  0.56230  0.24950  Biso   1.000  C
  C68      1.0000 0.95590  0.49480  0.19390  Biso   1.000  C
  C69      1.0000 0.17770  0.01650  0.38400  Biso   1.000  C
  C70      1.0000 0.20070  0.08300  0.32640  Biso   1.000  C
  C71      1.0000 0.06650  0.06230  0.25050  Biso   1.000  C
  C72      1.0000 0.04410  0.99480  0.30610  Biso   1.000  C
  C73      1.0000 0.32230  0.98350  0.88400  Biso   1.000  C
  C74      1.0000 0.29930  0.91700  0.82640  Biso   1.000  C
  C75      1.0000 0.43350  0.93770  0.75050  Biso   1.000  C
  C76      1.0000 0.45590  0.00520  0.80610  Biso   1.000  C
  C77      1.0000 0.98350  0.88400  0.32230  Biso   1.000  C
  C78      1.0000 0.91700  0.82640  0.29930  Biso   1.000  C
  C79      1.0000 0.93770  0.75050  0.43350  Biso   1.000  C
  C80      1.0000 0.00520  0.80610  0.45590  Biso   1.000  C
  C81      1.0000 0.01650  0.38400  0.17770  Biso   1.000  C
  C82      1.0000 0.08300  0.32640  0.20070  Biso   1.000  C
  C83      1.0000 0.06230  0.25050  0.06650  Biso   1.000  C
  C84      1.0000 0.99480  0.30610  0.04410  Biso   1.000  C
  C85      1.0000 0.51650  0.11600  0.82230  Biso   1.000  C
  C86      1.0000 0.58300  0.17360  0.79930  Biso   1.000  C
  C87      1.0000 0.56230  0.24950  0.93350  Biso   1.000  C
  C88      1.0000 0.49480  0.19390  0.95590  Biso   1.000  C
  C89      1.0000 0.48350  0.61600  0.67770  Biso   1.000  C
  C90      1.0000 0.41700  0.67360  0.70070  Biso   1.000  C
  C91      1.0000 0.43770  0.74950  0.56650  Biso   1.000  C
  C92      1.0000 0.50520  0.69390  0.54410  Biso   1.000  C
  C93      1.0000 0.38400  0.17770  0.01650  Biso   1.000  C
  C94      1.0000 0.32640  0.20070  0.08300  Biso   1.000  C
  C95      1.0000 0.25050  0.06650  0.06230  Biso   1.000  C
  C96      1.0000 0.30610  0.04410  0.99480  Biso   1.000  C
  C97      1.0000 0.88400  0.32230  0.98350  Biso   1.000  C
  C98      1.0000 0.82640  0.29930  0.91700  Biso   1.000  C
  C99      1.0000 0.75050  0.43350  0.93770  Biso   1.000  C
  C100     1.0000 0.80610  0.45590  0.00520  Biso   1.000  C
  C101     1.0000 0.61600  0.67770  0.48350  Biso   1.000  C
  C102     1.0000 0.67360  0.70070  0.41700  Biso   1.000  C
  C103     1.0000 0.74950  0.56650  0.43770  Biso   1.000  C
  C104     1.0000 0.69390  0.54410  0.50520  Biso   1.000  C
  C105     1.0000 0.11600  0.82230  0.51650  Biso   1.000  C
  C106     1.0000 0.17360  0.79930  0.58300  Biso   1.000  C
  C107     1.0000 0.24950  0.93350  0.56230  Biso   1.000  C
  C108     1.0000 0.19390  0.95590  0.49480  Biso   1.000  C
  C109     1.0000 0.75296  0.36005  0.09903  Biso   1.000  C
  C110     1.0000 0.72516  0.40553  0.10601  Biso   1.000  C
  C111     1.0000 0.68496  0.41900  0.07222  Biso   1.000  C
  C112     1.0000 0.67187  0.38529  0.03242  Biso   1.000  C
  C113     1.0000 0.69756  0.33968  0.02720  Biso   1.000  C
  C114     1.0000 0.73799  0.32621  0.06017  Biso   1.000  C
  C115     1.0000 0.79623  0.34754  0.13387  Biso   1.000  C
  C116     1.0000 0.62906  0.39979  0.99458  Biso   1.000  C
  C117     1.0000 0.74704  0.63995  0.59903  Biso   1.000  C
  C118     1.0000 0.77484  0.59447  0.60601  Biso   1.000  C
  C119     1.0000 0.81504  0.58100  0.57222  Biso   1.000  C
  C120     1.0000 0.82813  0.61471  0.53242  Biso   1.000  C
  C121     1.0000 0.80244  0.66032  0.52720  Biso   1.000  C
  C122     1.0000 0.76201  0.67379  0.56017  Biso   1.000  C
  C123     1.0000 0.70377  0.65246  0.63387  Biso   1.000  C
  C124     1.0000 0.87094  0.60021  0.49458  Biso   1.000  C
  C125     1.0000 0.24704  0.86005  0.40097  Biso   1.000  C
  C126     1.0000 0.27484  0.90553  0.39399  Biso   1.000  C
  C127     1.0000 0.31504  0.91900  0.42778  Biso   1.000  C
  C128     1.0000 0.32813  0.88529  0.46758  Biso   1.000  C
  C129     1.0000 0.30244  0.83968  0.47280  Biso   1.000  C
  C130     1.0000 0.26201  0.82621  0.43983  Biso   1.000  C
  C131     1.0000 0.20377  0.84754  0.36613  Biso   1.000  C
  C132     1.0000 0.37094  0.89979  0.50542  Biso   1.000  C
  C133     1.0000 0.25296  0.13995  0.90097  Biso   1.000  C
  C134     1.0000 0.22516  0.09447  0.89399  Biso   1.000  C
  C135     1.0000 0.18496  0.08100  0.92778  Biso   1.000  C
  C136     1.0000 0.17187  0.11471  0.96758  Biso   1.000  C
  C137     1.0000 0.19756  0.16032  0.97280  Biso   1.000  C
  C138     1.0000 0.23799  0.17379  0.93983  Biso   1.000  C
  C139     1.0000 0.29623  0.15246  0.86613  Biso   1.000  C
  C140     1.0000 0.12906  0.10021  0.00542  Biso   1.000  C
  C141     1.0000 0.09903  0.75296  0.36005  Biso   1.000  C
  C142     1.0000 0.10601  0.72516  0.40553  Biso   1.000  C
  C143     1.0000 0.07222  0.68496  0.41900  Biso   1.000  C
  C144     1.0000 0.03242  0.67187  0.38529  Biso   1.000  C
  C145     1.0000 0.02720  0.69756  0.33968  Biso   1.000  C
  C146     1.0000 0.06017  0.73799  0.32621  Biso   1.000  C
  C147     1.0000 0.13387  0.79623  0.34754  Biso   1.000  C
  C148     1.0000 0.99458  0.62906  0.39979  Biso   1.000  C
  C149     1.0000 0.59903  0.74704  0.63995  Biso   1.000  C
  C150     1.0000 0.60601  0.77484  0.59447  Biso   1.000  C
  C151     1.0000 0.57222  0.81504  0.58100  Biso   1.000  C
  C152     1.0000 0.53242  0.82813  0.61471  Biso   1.000  C
  C153     1.0000 0.52720  0.80244  0.66032  Biso   1.000  C
  C154     1.0000 0.56017  0.76201  0.67379  Biso   1.000  C
  C155     1.0000 0.63387  0.70377  0.65246  Biso   1.000  C
  C156     1.0000 0.49458  0.87094  0.60021  Biso   1.000  C
  C157     1.0000 0.40097  0.24704  0.86005  Biso   1.000  C
  C158     1.0000 0.39399  0.27484  0.90553  Biso   1.000  C
  C159     1.0000 0.42778  0.31504  0.91900  Biso   1.000  C
  C160     1.0000 0.46758  0.32813  0.88529  Biso   1.000  C
  C161     1.0000 0.47280  0.30244  0.83968  Biso   1.000  C
  C162     1.0000 0.43983  0.26201  0.82621  Biso   1.000  C
  C163     1.0000 0.36613  0.20377  0.84754  Biso   1.000  C
  C164     1.0000 0.50542  0.37094  0.89979  Biso   1.000  C
  C165     1.0000 0.90097  0.25296  0.13995  Biso   1.000  C
  C166     1.0000 0.89399  0.22516  0.09447  Biso   1.000  C
  C167     1.0000 0.92778  0.18496  0.08100  Biso   1.000  C
  C168     1.0000 0.96758  0.17187  0.11471  Biso   1.000  C
  C169     1.0000 0.97280  0.19756  0.16032  Biso   1.000  C
  C170     1.0000 0.93983  0.23799  0.17379  Biso   1.000  C
  C171     1.0000 0.86613  0.29623  0.15246  Biso   1.000  C
  C172     1.0000 0.00542  0.12906  0.10021  Biso   1.000  C
  C173     1.0000 0.36005  0.09903  0.75296  Biso   1.000  C
  C174     1.0000 0.40553  0.10601  0.72516  Biso   1.000  C
  C175     1.0000 0.41900  0.07222  0.68496  Biso   1.000  C
  C176     1.0000 0.38529  0.03242  0.67187  Biso   1.000  C
  C177     1.0000 0.33968  0.02720  0.69756  Biso   1.000  C
  C178     1.0000 0.32621  0.06017  0.73799  Biso   1.000  C
  C179     1.0000 0.34754  0.13387  0.79623  Biso   1.000  C
  C180     1.0000 0.39979  0.99458  0.62906  Biso   1.000  C
  C181     1.0000 0.63995  0.59903  0.74704  Biso   1.000  C
  C182     1.0000 0.59447  0.60601  0.77484  Biso   1.000  C
  C183     1.0000 0.58100  0.57222  0.81504  Biso   1.000  C
  C184     1.0000 0.61471  0.53242  0.82813  Biso   1.000  C
  C185     1.0000 0.66032  0.52720  0.80244  Biso   1.000  C
  C186     1.0000 0.67379  0.56017  0.76201  Biso   1.000  C
  C187     1.0000 0.65246  0.63387  0.70377  Biso   1.000  C
  C188     1.0000 0.60021  0.49458  0.87094  Biso   1.000  C
  C189     1.0000 0.86005  0.40097  0.24704  Biso   1.000  C
  C190     1.0000 0.90553  0.39399  0.27484  Biso   1.000  C
  C191     1.0000 0.91900  0.42778  0.31504  Biso   1.000  C
  C192     1.0000 0.88529  0.46758  0.32813  Biso   1.000  C
  C193     1.0000 0.83968  0.47280  0.30244  Biso   1.000  C
  C194     1.0000 0.82621  0.43983  0.26201  Biso   1.000  C
  C195     1.0000 0.84754  0.36613  0.20377  Biso   1.000  C
  C196     1.0000 0.89979  0.50542  0.37094  Biso   1.000  C
  C197     1.0000 0.13995  0.90097  0.25296  Biso   1.000  C
  C198     1.0000 0.09447  0.89399  0.22516  Biso   1.000  C
  C199     1.0000 0.08100  0.92778  0.18496  Biso   1.000  C
  C200     1.0000 0.11471  0.96758  0.17187  Biso   1.000  C
  C201     1.0000 0.16032  0.97280  0.19756  Biso   1.000  C
  C202     1.0000 0.17379  0.93983  0.23799  Biso   1.000  C
  C203     1.0000 0.15246  0.86613  0.29623  Biso   1.000  C
  C204     1.0000 0.10021  0.00542  0.12906  Biso   1.000  C
  C205     1.0000 0.61005  0.50296  0.65097  Biso   1.000  C
  C206     1.0000 0.65553  0.47516  0.64399  Biso   1.000  C
  C207     1.0000 0.66900  0.43496  0.67778  Biso   1.000  C
  C208     1.0000 0.63529  0.42187  0.71758  Biso   1.000  C
  C209     1.0000 0.58968  0.44756  0.72280  Biso   1.000  C
  C210     1.0000 0.57621  0.48799  0.68983  Biso   1.000  C
  C211     1.0000 0.59754  0.54623  0.61613  Biso   1.000  C
  C212     1.0000 0.64979  0.37906  0.75542  Biso   1.000  C
  C213     1.0000 0.88995  0.49704  0.15097  Biso   1.000  C
  C214     1.0000 0.84447  0.52484  0.14399  Biso   1.000  C
  C215     1.0000 0.83100  0.56504  0.17778  Biso   1.000  C
  C216     1.0000 0.86471  0.57813  0.21758  Biso   1.000  C
  C217     1.0000 0.91032  0.55244  0.22280  Biso   1.000  C
  C218     1.0000 0.92379  0.51201  0.18983  Biso   1.000  C
  C219     1.0000 0.90246  0.45377  0.11613  Biso   1.000  C
  C220     1.0000 0.85021  0.62094  0.25542  Biso   1.000  C
  C221     1.0000 0.11005  0.99704  0.34903  Biso   1.000  C
  C222     1.0000 0.15553  0.02484  0.35601  Biso   1.000  C
  C223     1.0000 0.16900  0.06504  0.32222  Biso   1.000  C
  C224     1.0000 0.13529  0.07813  0.28242  Biso   1.000  C
  C225     1.0000 0.08968  0.05244  0.27720  Biso   1.000  C
  C226     1.0000 0.07621  0.01201  0.31017  Biso   1.000  C
  C227     1.0000 0.09754  0.95377  0.38387  Biso   1.000  C
  C228     1.0000 0.14979  0.12094  0.24458  Biso   1.000  C
  C229     1.0000 0.38995  0.00296  0.84903  Biso   1.000  C
  C230     1.0000 0.34447  0.97516  0.85601  Biso   1.000  C
  C231     1.0000 0.33100  0.93496  0.82222  Biso   1.000  C
  C232     1.0000 0.36471  0.92187  0.78242  Biso   1.000  C
  C233     1.0000 0.41032  0.94756  0.77720  Biso   1.000  C
  C234     1.0000 0.42379  0.98799  0.81017  Biso   1.000  C
  C235     1.0000 0.40246  0.04623  0.88387  Biso   1.000  C
  C236     1.0000 0.35021  0.87906  0.74458  Biso   1.000  C
  C237     1.0000 0.00296  0.84903  0.38995  Biso   1.000  C
  C238     1.0000 0.97516  0.85601  0.34447  Biso   1.000  C
  C239     1.0000 0.93496  0.82222  0.33100  Biso   1.000  C
  C240     1.0000 0.92187  0.78242  0.36471  Biso   1.000  C
  C241     1.0000 0.94756  0.77720  0.41032  Biso   1.000  C
  C242     1.0000 0.98799  0.81017  0.42379  Biso   1.000  C
  C243     1.0000 0.04623  0.88387  0.40246  Biso   1.000  C
  C244     1.0000 0.87906  0.74458  0.35021  Biso   1.000  C
  C245     1.0000 0.99704  0.34903  0.11005  Biso   1.000  C
  C246     1.0000 0.02484  0.35601  0.15553  Biso   1.000  C
  C247     1.0000 0.06504  0.32222  0.16900  Biso   1.000  C
  C248     1.0000 0.07813  0.28242  0.13529  Biso   1.000  C
  C249     1.0000 0.05244  0.27720  0.08968  Biso   1.000  C
  C250     1.0000 0.01201  0.31017  0.07621  Biso   1.000  C
  C251     1.0000 0.95377  0.38387  0.09754  Biso   1.000  C
  C252     1.0000 0.12094  0.24458  0.14979  Biso   1.000  C
  C253     1.0000 0.49704  0.15097  0.88995  Biso   1.000  C
  C254     1.0000 0.52484  0.14399  0.84447  Biso   1.000  C
  C255     1.0000 0.56504  0.17778  0.83100  Biso   1.000  C
  C256     1.0000 0.57813  0.21758  0.86471  Biso   1.000  C
  C257     1.0000 0.55244  0.22280  0.91032  Biso   1.000  C
  C258     1.0000 0.51201  0.18983  0.92379  Biso   1.000  C
  C259     1.0000 0.45377  0.11613  0.90246  Biso   1.000  C
  C260     1.0000 0.62094  0.25542  0.85021  Biso   1.000  C
  C261     1.0000 0.50296  0.65097  0.61005  Biso   1.000  C
  C262     1.0000 0.47516  0.64399  0.65553  Biso   1.000  C
  C263     1.0000 0.43496  0.67778  0.66900  Biso   1.000  C
  C264     1.0000 0.42187  0.71758  0.63529  Biso   1.000  C
  C265     1.0000 0.44756  0.72280  0.58968  Biso   1.000  C
  C266     1.0000 0.48799  0.68983  0.57621  Biso   1.000  C
  C267     1.0000 0.54623  0.61613  0.59754  Biso   1.000  C
  C268     1.0000 0.37906  0.75542  0.64979  Biso   1.000  C
  C269     1.0000 0.34903  0.11005  0.99704  Biso   1.000  C
  C270     1.0000 0.35601  0.15553  0.02484  Biso   1.000  C
  C271     1.0000 0.32222  0.16900  0.06504  Biso   1.000  C
  C272     1.0000 0.28242  0.13529  0.07813  Biso   1.000  C
  C273     1.0000 0.27720  0.08968  0.05244  Biso   1.000  C
  C274     1.0000 0.31017  0.07621  0.01201  Biso   1.000  C
  C275     1.0000 0.38387  0.09754  0.95377  Biso   1.000  C
  C276     1.0000 0.24458  0.14979  0.12094  Biso   1.000  C
  C277     1.0000 0.84903  0.38995  0.00296  Biso   1.000  C
  C278     1.0000 0.85601  0.34447  0.97516  Biso   1.000  C
  C279     1.0000 0.82222  0.33100  0.93496  Biso   1.000  C
  C280     1.0000 0.78242  0.36471  0.92187  Biso   1.000  C
  C281     1.0000 0.77720  0.41032  0.94756  Biso   1.000  C
  C282     1.0000 0.81017  0.42379  0.98799  Biso   1.000  C
  C283     1.0000 0.88387  0.40246  0.04623  Biso   1.000  C
  C284     1.0000 0.74458  0.35021  0.87906  Biso   1.000  C
  C285     1.0000 0.65097  0.61005  0.50296  Biso   1.000  C
  C286     1.0000 0.64399  0.65553  0.47516  Biso   1.000  C
  C287     1.0000 0.67778  0.66900  0.43496  Biso   1.000  C
  C288     1.0000 0.71758  0.63529  0.42187  Biso   1.000  C
  C289     1.0000 0.72280  0.58968  0.44756  Biso   1.000  C
  C290     1.0000 0.68983  0.57621  0.48799  Biso   1.000  C
  C291     1.0000 0.61613  0.59754  0.54623  Biso   1.000  C
  C292     1.0000 0.75542  0.64979  0.37906  Biso   1.000  C
  C293     1.0000 0.15097  0.88995  0.49704  Biso   1.000  C
  C294     1.0000 0.14399  0.84447  0.52484  Biso   1.000  C
  C295     1.0000 0.17778  0.83100  0.56504  Biso   1.000  C
  C296     1.0000 0.21758  0.86471  0.57813  Biso   1.000  C
  C297     1.0000 0.22280  0.91032  0.55244  Biso   1.000  C
  C298     1.0000 0.18983  0.92379  0.51201  Biso   1.000  C
  C299     1.0000 0.11613  0.90246  0.45377  Biso   1.000  C
  C300     1.0000 0.25542  0.85021  0.62094  Biso   1.000  C
  C301     1.0000 0.82525  0.30532  0.12166  Biso   1.000  C
  C302     1.0000 0.67475  0.69468  0.62166  Biso   1.000  C
  C303     1.0000 0.17475  0.80532  0.37834  Biso   1.000  C
  C304     1.0000 0.32525  0.19468  0.87834  Biso   1.000  C
  C305     1.0000 0.12166  0.82525  0.30532  Biso   1.000  C
  C306     1.0000 0.62166  0.67475  0.69468  Biso   1.000  C
  C307     1.0000 0.37834  0.17475  0.80532  Biso   1.000  C
  C308     1.0000 0.87834  0.32525  0.19468  Biso   1.000  C
  C309     1.0000 0.30532  0.12166  0.82525  Biso   1.000  C
  C310     1.0000 0.69468  0.62166  0.67475  Biso   1.000  C
  C311     1.0000 0.80532  0.37834  0.17475  Biso   1.000  C
  C312     1.0000 0.19468  0.87834  0.32525  Biso   1.000  C
  C313     1.0000 0.55532  0.57525  0.62834  Biso   1.000  C
  C314     1.0000 0.94468  0.42475  0.12834  Biso   1.000  C
  C315     1.0000 0.05532  0.92475  0.37166  Biso   1.000  C
  C316     1.0000 0.44468  0.07525  0.87166  Biso   1.000  C
  C317     1.0000 0.07525  0.87166  0.44468  Biso   1.000  C
  C318     1.0000 0.92475  0.37166  0.05532  Biso   1.000  C
  C319     1.0000 0.42475  0.12834  0.94468  Biso   1.000  C
  C320     1.0000 0.57525  0.62834  0.55532  Biso   1.000  C
  C321     1.0000 0.37166  0.05532  0.92475  Biso   1.000  C
  C322     1.0000 0.87166  0.44468  0.07525  Biso   1.000  C
  C323     1.0000 0.62834  0.55532  0.57525  Biso   1.000  C
  C324     1.0000 0.12834  0.94468  0.42475  Biso   1.000  C
  C325     1.0000 0.62257  0.37080  0.95604  Biso   1.000  C
  C326     1.0000 0.60150  0.43887  0.00328  Biso   1.000  C
  C327     1.0000 0.87743  0.62920  0.45604  Biso   1.000  C
  C328     1.0000 0.89850  0.56113  0.50328  Biso   1.000  C
  C329     1.0000 0.37743  0.87080  0.54396  Biso   1.000  C
  C330     1.0000 0.39850  0.93887  0.49672  Biso   1.000  C
  C331     1.0000 0.12257  0.12920  0.04396  Biso   1.000  C
  C332     1.0000 0.10150  0.06113  0.99672  Biso   1.000  C
  C333     1.0000 0.95604  0.62257  0.37080  Biso   1.000  C
  C334     1.0000 0.00328  0.60150  0.43887  Biso   1.000  C
  C335     1.0000 0.45604  0.87743  0.62920  Biso   1.000  C
  C336     1.0000 0.50328  0.89850  0.56113  Biso   1.000  C
  C337     1.0000 0.54396  0.37743  0.87080  Biso   1.000  C
  C338     1.0000 0.49672  0.39850  0.93887  Biso   1.000  C
  C339     1.0000 0.04396  0.12257  0.12920  Biso   1.000  C
  C340     1.0000 0.99672  0.10150  0.06113  Biso   1.000  C
  C341     1.0000 0.37080  0.95604  0.62257  Biso   1.000  C
  C342     1.0000 0.43887  0.00328  0.60150  Biso   1.000  C
  C343     1.0000 0.62920  0.45604  0.87743  Biso   1.000  C
  C344     1.0000 0.56113  0.50328  0.89850  Biso   1.000  C
  C345     1.0000 0.87080  0.54396  0.37743  Biso   1.000  C
  C346     1.0000 0.93887  0.49672  0.39850  Biso   1.000  C
  C347     1.0000 0.12920  0.04396  0.12257  Biso   1.000  C
  C348     1.0000 0.06113  0.99672  0.10150  Biso   1.000  C
  C349     1.0000 0.62080  0.37257  0.79396  Biso   1.000  C
  C350     1.0000 0.68887  0.35150  0.74672  Biso   1.000  C
  C351     1.0000 0.87920  0.62743  0.29396  Biso   1.000  C
  C352     1.0000 0.81113  0.64850  0.24672  Biso   1.000  C
  C353     1.0000 0.12080  0.12743  0.20604  Biso   1.000  C
  C354     1.0000 0.18887  0.14850  0.25328  Biso   1.000  C
  C355     1.0000 0.37920  0.87257  0.70604  Biso   1.000  C
  C356     1.0000 0.31113  0.85150  0.75328  Biso   1.000  C
  C357     1.0000 0.87257  0.70604  0.37920  Biso   1.000  C
  C358     1.0000 0.85150  0.75328  0.31113  Biso   1.000  C
  C359     1.0000 0.12743  0.20604  0.12080  Biso   1.000  C
  C360     1.0000 0.14850  0.25328  0.18887  Biso   1.000  C
  C361     1.0000 0.62743  0.29396  0.87920  Biso   1.000  C
  C362     1.0000 0.64850  0.24672  0.81113  Biso   1.000  C
  C363     1.0000 0.37257  0.79396  0.62080  Biso   1.000  C
  C364     1.0000 0.35150  0.74672  0.68887  Biso   1.000  C
  C365     1.0000 0.20604  0.12080  0.12743  Biso   1.000  C
  C366     1.0000 0.25328  0.18887  0.14850  Biso   1.000  C
  C367     1.0000 0.70604  0.37920  0.87257  Biso   1.000  C
  C368     1.0000 0.75328  0.31113  0.85150  Biso   1.000  C
  C369     1.0000 0.79396  0.62080  0.37257  Biso   1.000  C
  C370     1.0000 0.74672  0.68887  0.35150  Biso   1.000  C
  C371     1.0000 0.29396  0.87920  0.62743  Biso   1.000  C
  C372     1.0000 0.24672  0.81113  0.64850  Biso   1.000  C
  O1       1.0000 0.62399  0.74099  0.11700  Biso   1.000  O
  O2       1.0000 0.87749  0.98047  0.62401  Biso   1.000  O
  O3       1.0000 0.38450  0.23398  0.37050  Biso   1.000  O
  O4       1.0000 0.13100  0.48748  0.87751  Biso   1.000  O
  O5       1.0000 0.70638  0.65860  0.19939  Biso   1.000  O
  O6       1.0000 0.79510  0.06286  0.70640  Biso   1.000  O
  O7       1.0000 0.30211  0.15159  0.28811  Biso   1.000  O
  O8       1.0000 0.21339  0.56987  0.79512  Biso   1.000  O
  O9       1.0000 0.95988  0.89808  0.54162  Biso   1.000  O
  O10      1.0000 0.54160  0.82338  0.03461  Biso   1.000  O
  O11      1.0000 0.46689  0.31637  0.45289  Biso   1.000  O
  O12      1.0000 0.04861  0.40509  0.95990  Biso   1.000  O
  O13      1.0000 0.55879  0.61302  0.05139  Biso   1.000  O
  O14      1.0000 0.51417  0.47704  0.16993  Biso   1.000  O
  O15      1.0000 0.50527  0.55826  0.03689  Biso   1.000  O
  O16      1.0000 0.57886  0.53889  0.19062  Biso   1.000  O
  O17      1.0000 0.94269  0.10844  0.55840  Biso   1.000  O
  O18      1.0000 0.98731  0.24442  0.67694  Biso   1.000  O
  O19      1.0000 0.01023  0.16320  0.54390  Biso   1.000  O
  O20      1.0000 0.92262  0.18257  0.69763  Biso   1.000  O
  O21      1.0000 0.44971  0.10601  0.43611  Biso   1.000  O
  O22      1.0000 0.49432  0.97003  0.31757  Biso   1.000  O
  O23      1.0000 0.50322  0.05125  0.45061  Biso   1.000  O
  O24      1.0000 0.42963  0.03188  0.29689  Biso   1.000  O
  O25      1.0000 0.06580  0.61545  0.94312  Biso   1.000  O
  O26      1.0000 0.02118  0.75143  0.82458  Biso   1.000  O
  O27      1.0000 0.99826  0.67021  0.95762  Biso   1.000  O
  O28      1.0000 0.08587  0.68958  0.80390  Biso   1.000  O
  O29      1.0000 0.55838  0.80619  0.24497  Biso   1.000  O
  O30      1.0000 0.67692  0.85080  0.38095  Biso   1.000  O
  O31      1.0000 0.54388  0.85970  0.29972  Biso   1.000  O
  O32      1.0000 0.69761  0.78611  0.31909  Biso   1.000  O
  O33      1.0000 0.06539  0.42228  0.74954  Biso   1.000  O
  O34      1.0000 0.18393  0.37766  0.61356  Biso   1.000  O
  O35      1.0000 0.05089  0.35475  0.69479  Biso   1.000  O
  O36      1.0000 0.20462  0.44236  0.67542  Biso   1.000  O
  O37      1.0000 0.94310  0.91527  0.75198  Biso   1.000  O
  O38      1.0000 0.82456  0.87065  0.88796  Biso   1.000  O
  O39      1.0000 0.95760  0.86176  0.80673  Biso   1.000  O
  O40      1.0000 0.80388  0.93535  0.82610  Biso   1.000  O
  O41      1.0000 0.45011  0.29918  0.24253  Biso   1.000  O
  O42      1.0000 0.33157  0.34379  0.10655  Biso   1.000  O
  O43      1.0000 0.46461  0.36671  0.18778  Biso   1.000  O
  O44      1.0000 0.31089  0.27910  0.16841  Biso   1.000  O
  O45      1.0000 0.75196  0.80659  0.05180  Biso   1.000  O
  O46      1.0000 0.88794  0.68805  0.00718  Biso   1.000  O
  O47      1.0000 0.80671  0.82109  0.99828  Biso   1.000  O
  O48      1.0000 0.82608  0.66737  0.07187  Biso   1.000  O
  O49      1.0000 0.25653  0.29958  0.43570  Biso   1.000  O
  O50      1.0000 0.12055  0.18104  0.48032  Biso   1.000  O
  O51      1.0000 0.20178  0.31408  0.50324  Biso   1.000  O
  O52      1.0000 0.18241  0.16036  0.41563  Biso   1.000  O
  O53      1.0000 0.25897  0.42187  0.94271  Biso   1.000  O
  O54      1.0000 0.39495  0.54041  0.98733  Biso   1.000  O
  O55      1.0000 0.31372  0.40737  0.99623  Biso   1.000  O
  O56      1.0000 0.33309  0.56110  0.92264  Biso   1.000  O
  O57      1.0000 0.74952  0.91486  0.55881  Biso   1.000  O
  O58      1.0000 0.61354  0.03340  0.51419  Biso   1.000  O
  O59      1.0000 0.69477  0.90036  0.49127  Biso   1.000  O
  O60      1.0000 0.67540  0.05409  0.57888  Biso   1.000  O
  O61      1.0000 0.00546  0.04567  0.68962  Biso   1.000  O
  O62      1.0000 0.14144  0.09029  0.57108  Biso   1.000  O
  O63      1.0000 0.06022  0.11321  0.70412  Biso   1.000  O
  O64      1.0000 0.07959  0.02559  0.55039  Biso   1.000  O
  O65      1.0000 0.51004  0.67578  0.18261  Biso   1.000  O
  O66      1.0000 0.37406  0.63117  0.06407  Biso   1.000  O
  O67      1.0000 0.45528  0.60825  0.19711  Biso   1.000  O
  O68      1.0000 0.43591  0.69586  0.04338  Biso   1.000  O
  O69      1.0000 0.49845  0.16877  0.30490  Biso   1.000  O
  O70      1.0000 0.63443  0.12416  0.42343  Biso   1.000  O
  O71      1.0000 0.55321  0.10124  0.29040  Biso   1.000  O
  O72      1.0000 0.57258  0.18885  0.44412  Biso   1.000  O
  O73      1.0000 0.00303  0.55268  0.81191  Biso   1.000  O
  O74      1.0000 0.86705  0.59730  0.93044  Biso   1.000  O
  O75      1.0000 0.94827  0.62022  0.79741  Biso   1.000  O
  O76      1.0000 0.92890  0.53261  0.95113  Biso   1.000  O
  O77      1.0000 0.81229  0.04608  0.49604  Biso   1.000  O
  O78      1.0000 0.76767  0.92754  0.36006  Biso   1.000  O
  O79      1.0000 0.74476  0.06058  0.44128  Biso   1.000  O
  O80      1.0000 0.83237  0.90685  0.42191  Biso   1.000  O
  O81      1.0000 0.19620  0.55309  0.99146  Biso   1.000  O
  O82      1.0000 0.24082  0.43455  0.12744  Biso   1.000  O
  O83      1.0000 0.26373  0.56759  0.04622  Biso   1.000  O
  O84      1.0000 0.17612  0.41386  0.06559  Biso   1.000  O
  O85      1.0000 0.68919  0.67538  0.00305  Biso   1.000  O
  O86      1.0000 0.73381  0.79392  0.86707  Biso   1.000  O
  O87      1.0000 0.75672  0.66088  0.94829  Biso   1.000  O
  O88      1.0000 0.66911  0.81460  0.92892  Biso   1.000  O
  O89      1.0000 0.31930  0.16837  0.49847  Biso   1.000  O
  O90      1.0000 0.27469  0.28691  0.63445  Biso   1.000  O
  O91      1.0000 0.25177  0.15387  0.55323  Biso   1.000  O
  O92      1.0000 0.33938  0.30759  0.57260  Biso   1.000  O
  O93      1.0000 0.81189  0.86652  0.68921  Biso   1.000  O
  O94      1.0000 0.93043  0.73054  0.73383  Biso   1.000  O
  O95      1.0000 0.79739  0.81176  0.75674  Biso   1.000  O
  O96      1.0000 0.95111  0.79240  0.66913  Biso   1.000  O
  O97      1.0000 0.31890  0.36195  0.30530  Biso   1.000  O
  O98      1.0000 0.43744  0.49793  0.26068  Biso   1.000  O
  O99      1.0000 0.30440  0.41670  0.23777  Biso   1.000  O
  O100     1.0000 0.45812  0.43607  0.32538  Biso   1.000  O
  O101     1.0000 0.19661  0.35951  0.81231  Biso   1.000  O
  O102     1.0000 0.07807  0.22353  0.76769  Biso   1.000  O
  O103     1.0000 0.21111  0.30475  0.74478  Biso   1.000  O
  O104     1.0000 0.05738  0.28539  0.83239  Biso   1.000  O
  O105     1.0000 0.68960  0.85494  0.18220  Biso   1.000  O
  O106     1.0000 0.57106  0.99092  0.22682  Biso   1.000  O
  O107     1.0000 0.70410  0.90969  0.24973  Biso   1.000  O
  O108     1.0000 0.55037  0.92906  0.16212  Biso   1.000  O
  O109     1.0000 0.46461  0.47765  0.08962  Biso   1.000  O
  O110     1.0000 0.54875  0.58777  0.07542  Biso   1.000  O
  O111     1.0000 0.52127  0.50462  0.14752  Biso   1.000  O
  O112     1.0000 0.51001  0.55400  0.06762  Biso   1.000  O
  O113     1.0000 0.50740  0.51131  0.10128  Biso   1.000  O
  O114     1.0000 0.57268  0.58087  0.12420  Biso   1.000  O
  O115     1.0000 0.61943  0.61363  0.14701  Biso   1.000  O
  O116     1.0000 0.56081  0.54122  0.15928  Biso   1.000  O
  O117     1.0000 0.05089  0.24381  0.59663  Biso   1.000  O
  O118     1.0000 0.95273  0.13369  0.58243  Biso   1.000  O
  O119     1.0000 0.98021  0.21684  0.65453  Biso   1.000  O
  O120     1.0000 0.99147  0.16746  0.57463  Biso   1.000  O
  O121     1.0000 0.00810  0.21015  0.60829  Biso   1.000  O
  O122     1.0000 0.92880  0.14058  0.63121  Biso   1.000  O
  O123     1.0000 0.88206  0.10783  0.65402  Biso   1.000  O
  O124     1.0000 0.94067  0.18023  0.66629  Biso   1.000  O
  O125     1.0000 0.54388  0.97064  0.39788  Biso   1.000  O
  O126     1.0000 0.45974  0.08076  0.41208  Biso   1.000  O
  O127     1.0000 0.48722  0.99761  0.33998  Biso   1.000  O
  O128     1.0000 0.49848  0.04699  0.41989  Biso   1.000  O
  O129     1.0000 0.50109  0.00430  0.38622  Biso   1.000  O
  O130     1.0000 0.43581  0.07386  0.36330  Biso   1.000  O
  O131     1.0000 0.38907  0.10662  0.34049  Biso   1.000  O
  O132     1.0000 0.44768  0.03421  0.32822  Biso   1.000  O
  O133     1.0000 0.95760  0.75082  0.90489  Biso   1.000  O
  O134     1.0000 0.05576  0.64070  0.91909  Biso   1.000  O
  O135     1.0000 0.02828  0.72385  0.84699  Biso   1.000  O
  O136     1.0000 0.01702  0.67447  0.92690  Biso   1.000  O
  O137     1.0000 0.00039  0.71716  0.89323  Biso   1.000  O
  O138     1.0000 0.07969  0.64759  0.87031  Biso   1.000  O
  O139     1.0000 0.12644  0.61484  0.84750  Biso   1.000  O
  O140     1.0000 0.06782  0.68724  0.83523  Biso   1.000  O
  O141     1.0000 0.59661  0.90036  0.38034  Biso   1.000  O
  O142     1.0000 0.58241  0.81623  0.27022  Biso   1.000  O
  O143     1.0000 0.65451  0.84371  0.35337  Biso   1.000  O
  O144     1.0000 0.57461  0.85496  0.30398  Biso   1.000  O
  O145     1.0000 0.60827  0.85757  0.34667  Biso   1.000  O
  O146     1.0000 0.63119  0.79230  0.27711  Biso   1.000  O
  O147     1.0000 0.65400  0.74555  0.24436  Biso   1.000  O
  O148     1.0000 0.66627  0.80416  0.31676  Biso   1.000  O
  O149     1.0000 0.10362  0.31408  0.61417  Biso   1.000  O
  O150     1.0000 0.08942  0.41224  0.72429  Biso   1.000  O
  O151     1.0000 0.16152  0.38476  0.64115  Biso   1.000  O
  O152     1.0000 0.08162  0.37351  0.69053  Biso   1.000  O
  O153     1.0000 0.11528  0.35688  0.64784  Biso   1.000  O
  O154     1.0000 0.13820  0.43617  0.71740  Biso   1.000  O
  O155     1.0000 0.16101  0.48292  0.75015  Biso   1.000  O
  O156     1.0000 0.17328  0.42431  0.67775  Biso   1.000  O
  O157     1.0000 0.90487  0.82109  0.88735  Biso   1.000  O
  O158     1.0000 0.91907  0.90523  0.77723  Biso   1.000  O
  O159     1.0000 0.84697  0.87775  0.86038  Biso   1.000  O
  O160     1.0000 0.92688  0.86650  0.81099  Biso   1.000  O
  O161     1.0000 0.89321  0.86389  0.85368  Biso   1.000  O
  O162     1.0000 0.87029  0.92916  0.78412  Biso   1.000  O
  O163     1.0000 0.84748  0.97591  0.75137  Biso   1.000  O
  O164     1.0000 0.83521  0.91730  0.82377  Biso   1.000  O
  O165     1.0000 0.41188  0.40737  0.10716  Biso   1.000  O
  O166     1.0000 0.42608  0.30922  0.21728  Biso   1.000  O
  O167     1.0000 0.35398  0.33670  0.13413  Biso   1.000  O
  O168     1.0000 0.43389  0.34795  0.18352  Biso   1.000  O
  O169     1.0000 0.40022  0.36458  0.14083  Biso   1.000  O
  O170     1.0000 0.37730  0.28529  0.21039  Biso   1.000  O
  O171     1.0000 0.35449  0.23854  0.24314  Biso   1.000  O
  O172     1.0000 0.34222  0.29715  0.17074  Biso   1.000  O
  O173     1.0000 0.88733  0.76836  0.95762  Biso   1.000  O
  O174     1.0000 0.77721  0.78256  0.04176  Biso   1.000  O
  O175     1.0000 0.86036  0.71046  0.01428  Biso   1.000  O
  O176     1.0000 0.81097  0.79037  0.00302  Biso   1.000  O
  O177     1.0000 0.85366  0.75670  0.00041  Biso   1.000  O
  O178     1.0000 0.78410  0.73379  0.06569  Biso   1.000  O
  O179     1.0000 0.75135  0.71097  0.11243  Biso   1.000  O
  O180     1.0000 0.82375  0.69870  0.05382  Biso   1.000  O
  O181     1.0000 0.12116  0.26135  0.54390  Biso   1.000  O
  O182     1.0000 0.23129  0.27555  0.44574  Biso   1.000  O
  O183     1.0000 0.14814  0.20345  0.47322  Biso   1.000  O
  O184     1.0000 0.19752  0.28336  0.48448  Biso   1.000  O
  O185     1.0000 0.15483  0.24969  0.50111  Biso   1.000  O
  O186     1.0000 0.22439  0.22678  0.42181  Biso   1.000  O
  O187     1.0000 0.25714  0.20396  0.37507  Biso   1.000  O
  O188     1.0000 0.18474  0.19169  0.43368  Biso   1.000  O
  O189     1.0000 0.39434  0.46010  0.03689  Biso   1.000  O
  O190     1.0000 0.28422  0.44591  0.95275  Biso   1.000  O
  O191     1.0000 0.36737  0.51800  0.98023  Biso   1.000  O
  O192     1.0000 0.31798  0.43810  0.99149  Biso   1.000  O
  O193     1.0000 0.36067  0.47176  0.99410  Biso   1.000  O
  O194     1.0000 0.29111  0.49468  0.92882  Biso   1.000  O
  O195     1.0000 0.25836  0.51750  0.88208  Biso   1.000  O
  O196     1.0000 0.33076  0.52977  0.94069  Biso   1.000  O
  O197     1.0000 0.61415  0.95309  0.45061  Biso   1.000  O
  O198     1.0000 0.72427  0.93890  0.54877  Biso   1.000  O
  O199     1.0000 0.64113  0.01099  0.52129  Biso   1.000  O
  O200     1.0000 0.69051  0.93109  0.51003  Biso   1.000  O
  O201     1.0000 0.64782  0.96475  0.49340  Biso   1.000  O
  O202     1.0000 0.71738  0.98767  0.57270  Biso   1.000  O
  O203     1.0000 0.75013  0.01049  0.61944  Biso   1.000  O
  O204     1.0000 0.67773  0.02276  0.56083  Biso   1.000  O
  O205     1.0000 0.14083  0.15387  0.65139  Biso   1.000  O
  O206     1.0000 0.03071  0.05571  0.66558  Biso   1.000  O
  O207     1.0000 0.11386  0.08319  0.59349  Biso   1.000  O
  O208     1.0000 0.06448  0.09445  0.67339  Biso   1.000  O
  O209     1.0000 0.10717  0.11108  0.63973  Biso   1.000  O
  O210     1.0000 0.03761  0.03178  0.61681  Biso   1.000  O
  O211     1.0000 0.00485  0.98503  0.59399  Biso   1.000  O
  O212     1.0000 0.07726  0.04364  0.58172  Biso   1.000  O
  O213     1.0000 0.37467  0.56759  0.14438  Biso   1.000  O
  O214     1.0000 0.48479  0.66575  0.15857  Biso   1.000  O
  O215     1.0000 0.40164  0.63827  0.08648  Biso   1.000  O
  O216     1.0000 0.45102  0.62701  0.16638  Biso   1.000  O
  O217     1.0000 0.40833  0.61038  0.13272  Biso   1.000  O
  O218     1.0000 0.47789  0.68968  0.10980  Biso   1.000  O
  O219     1.0000 0.51065  0.73642  0.08698  Biso   1.000  O
  O220     1.0000 0.43825  0.67781  0.07471  Biso   1.000  O
  O221     1.0000 0.63382  0.06058  0.34312  Biso   1.000  O
  O222     1.0000 0.52370  0.15874  0.32893  Biso   1.000  O
  O223     1.0000 0.60685  0.13126  0.40103  Biso   1.000  O
  O224     1.0000 0.55747  0.12000  0.32112  Biso   1.000  O
  O225     1.0000 0.60016  0.10337  0.35479  Biso   1.000  O
  O226     1.0000 0.53060  0.18267  0.37770  Biso   1.000  O
  O227     1.0000 0.49784  0.22941  0.40052  Biso   1.000  O
  O228     1.0000 0.57025  0.17080  0.41279  Biso   1.000  O
  O229     1.0000 0.86766  0.66088  0.85013  Biso   1.000  O
  O230     1.0000 0.97778  0.56272  0.83594  Biso   1.000  O
  O231     1.0000 0.89463  0.59020  0.90804  Biso   1.000  O
  O232     1.0000 0.94401  0.60146  0.82813  Biso   1.000  O
  O233     1.0000 0.90132  0.61809  0.86180  Biso   1.000  O
  O234     1.0000 0.97088  0.53879  0.88471  Biso   1.000  O
  O235     1.0000 0.00364  0.49204  0.90753  Biso   1.000  O
  O236     1.0000 0.93124  0.55065  0.91980  Biso   1.000  O
  O237     1.0000 0.70410  0.00785  0.36067  Biso   1.000  O
  O238     1.0000 0.80225  0.02205  0.47079  Biso   1.000  O
  O239     1.0000 0.77477  0.94995  0.38764  Biso   1.000  O
  O240     1.0000 0.76352  0.02985  0.43702  Biso   1.000  O
  O241     1.0000 0.74689  0.99619  0.39433  Biso   1.000  O
  O242     1.0000 0.82618  0.97327  0.46389  Biso   1.000  O
  O243     1.0000 0.87293  0.95046  0.49665  Biso   1.000  O
  O244     1.0000 0.81432  0.93819  0.42425  Biso   1.000  O
  O245     1.0000 0.30440  0.51486  0.12683  Biso   1.000  O
  O246     1.0000 0.20624  0.52906  0.01671  Biso   1.000  O
  O247     1.0000 0.23372  0.45696  0.09986  Biso   1.000  O
  O248     1.0000 0.24497  0.53686  0.05048  Biso   1.000  O
  O249     1.0000 0.26160  0.50320  0.09317  Biso   1.000  O
  O250     1.0000 0.18231  0.48028  0.02361  Biso   1.000  O
  O251     1.0000 0.13556  0.45747  0.99085  Biso   1.000  O
  O252     1.0000 0.19417  0.44520  0.06325  Biso   1.000  O
  O253     1.0000 0.79739  0.71361  0.86768  Biso   1.000  O
  O254     1.0000 0.69923  0.69941  0.97780  Biso   1.000  O
  O255     1.0000 0.72671  0.77151  0.89465  Biso   1.000  O
  O256     1.0000 0.73796  0.69160  0.94403  Biso   1.000  O
  O257     1.0000 0.75459  0.72527  0.90134  Biso   1.000  O
  O258     1.0000 0.67530  0.74819  0.97090  Biso   1.000  O
  O259     1.0000 0.62855  0.77100  0.00366  Biso   1.000  O
  O260     1.0000 0.68716  0.78327  0.93126  Biso   1.000  O
  O261     1.0000 0.21111  0.20660  0.63384  Biso   1.000  O
  O262     1.0000 0.30926  0.19240  0.52372  Biso   1.000  O
  O263     1.0000 0.28178  0.26450  0.60687  Biso   1.000  O
  O264     1.0000 0.27053  0.18459  0.55749  Biso   1.000  O
  O265     1.0000 0.25390  0.21826  0.60018  Biso   1.000  O
  O266     1.0000 0.33319  0.24118  0.53062  Biso   1.000  O
  O267     1.0000 0.37994  0.26399  0.49786  Biso   1.000  O
  O268     1.0000 0.32133  0.27626  0.57027  Biso   1.000  O
  O269     1.0000 0.85011  0.73115  0.79741  Biso   1.000  O
  O270     1.0000 0.83592  0.84127  0.69925  Biso   1.000  O
  O271     1.0000 0.90802  0.75812  0.72673  Biso   1.000  O
  O272     1.0000 0.82811  0.80751  0.73798  Biso   1.000  O
  O273     1.0000 0.86178  0.76482  0.75461  Biso   1.000  O
  O274     1.0000 0.88469  0.83438  0.67532  Biso   1.000  O
  O275     1.0000 0.90751  0.86713  0.62857  Biso   1.000  O
  O276     1.0000 0.91978  0.79473  0.68718  Biso   1.000  O
  O277     1.0000 0.35713  0.49732  0.19711  Biso   1.000  O
  O278     1.0000 0.34293  0.38719  0.29526  Biso   1.000  O
  O279     1.0000 0.41503  0.47034  0.26778  Biso   1.000  O
  O280     1.0000 0.33512  0.42096  0.25653  Biso   1.000  O
  O281     1.0000 0.36879  0.46365  0.23990  Biso   1.000  O
  O282     1.0000 0.39170  0.39409  0.31919  Biso   1.000  O
  O283     1.0000 0.41452  0.36134  0.36594  Biso   1.000  O
  O284     1.0000 0.42679  0.43374  0.30733  Biso   1.000  O
  O285     1.0000 0.15838  0.22414  0.70412  Biso   1.000  O
  O286     1.0000 0.17257  0.33426  0.80227  Biso   1.000  O
  O287     1.0000 0.10048  0.25111  0.77479  Biso   1.000  O
  O288     1.0000 0.18038  0.30050  0.76354  Biso   1.000  O
  O289     1.0000 0.14672  0.25781  0.74691  Biso   1.000  O
  O290     1.0000 0.12380  0.32737  0.82620  Biso   1.000  O
  O291     1.0000 0.10098  0.36012  0.87295  Biso   1.000  O
  O292     1.0000 0.08871  0.28772  0.81434  Biso   1.000  O
  O293     1.0000 0.65137  0.99031  0.29040  Biso   1.000  O
  O294     1.0000 0.66556  0.88018  0.19224  Biso   1.000  O
  O295     1.0000 0.59347  0.96333  0.21972  Biso   1.000  O
  O296     1.0000 0.67337  0.91395  0.23097  Biso   1.000  O
  O297     1.0000 0.63971  0.95664  0.24760  Biso   1.000  O
  O298     1.0000 0.61679  0.88708  0.16831  Biso   1.000  O
  O299     1.0000 0.59397  0.85433  0.12156  Biso   1.000  O
  O300     1.0000 0.58170  0.92673  0.18017  Biso   1.000  O
  O301     1.0000 0.45346  0.43597  0.11872  Biso   1.000  O
  O302     1.0000 0.06205  0.28549  0.62573  Biso   1.000  O
  O303     1.0000 0.55503  0.92896  0.36878  Biso   1.000  O
  O304     1.0000 0.94645  0.79250  0.87579  Biso   1.000  O
  O305     1.0000 0.62571  0.91152  0.42202  Biso   1.000  O
  O306     1.0000 0.13272  0.30293  0.57250  Biso   1.000  O
  O307     1.0000 0.87577  0.80994  0.92903  Biso   1.000  O
  O308     1.0000 0.38278  0.41853  0.06549  Biso   1.000  O
  O309     1.0000 0.92901  0.73926  0.94647  Biso   1.000  O
  O310     1.0000 0.07949  0.23225  0.55505  Biso   1.000  O
  O311     1.0000 0.43602  0.48921  0.04804  Biso   1.000  O
  O312     1.0000 0.57248  0.98219  0.43946  Biso   1.000  O
  O313     1.0000 0.18251  0.16502  0.62228  Biso   1.000  O
  O314     1.0000 0.33299  0.55643  0.11527  Biso   1.000  O
  O315     1.0000 0.67550  0.04942  0.37223  Biso   1.000  O
  O316     1.0000 0.82598  0.67203  0.87924  Biso   1.000  O
  O317     1.0000 0.69294  0.97875  0.31899  Biso   1.000  O
  O318     1.0000 0.31555  0.48576  0.16851  Biso   1.000  O
  O319     1.0000 0.80854  0.74271  0.82600  Biso   1.000  O
  O320     1.0000 0.19995  0.23570  0.67552  Biso   1.000  O
  O321     1.0000 0.87922  0.68947  0.80856  Biso   1.000  O
  O322     1.0000 0.38623  0.53899  0.18595  Biso   1.000  O
  O323     1.0000 0.12927  0.18246  0.69296  Biso   1.000  O
  O324     1.0000 0.62226  0.03198  0.30155  Biso   1.000  O
  O325     1.0000 0.64650  0.60409  0.18230  Biso   1.000  O
  O326     1.0000 0.62673  0.65054  0.11639  Biso   1.000  O
  O327     1.0000 0.85498  0.11736  0.68931  Biso   1.000  O
  O328     1.0000 0.87476  0.07092  0.62340  Biso   1.000  O
  O329     1.0000 0.36199  0.09708  0.30520  Biso   1.000  O
  O330     1.0000 0.38177  0.14353  0.37111  Biso   1.000  O
  O331     1.0000 0.15351  0.62437  0.81221  Biso   1.000  O
  O332     1.0000 0.13374  0.57793  0.87812  Biso   1.000  O
  O333     1.0000 0.68929  0.71848  0.25389  Biso   1.000  O
  O334     1.0000 0.62338  0.73825  0.20745  Biso   1.000  O
  O335     1.0000 0.19630  0.50999  0.74062  Biso   1.000  O
  O336     1.0000 0.13039  0.49022  0.78706  Biso   1.000  O
  O337     1.0000 0.81219  0.00298  0.76090  Biso   1.000  O
  O338     1.0000 0.87810  0.98321  0.71446  Biso   1.000  O
  O339     1.0000 0.31920  0.21146  0.23361  Biso   1.000  O
  O340     1.0000 0.38511  0.23124  0.28005  Biso   1.000  O
  O341     1.0000 0.76088  0.67568  0.13951  Biso   1.000  O
  O342     1.0000 0.71444  0.74159  0.11974  Biso   1.000  O
  O343     1.0000 0.24761  0.16867  0.34799  Biso   1.000  O
  O344     1.0000 0.29405  0.23458  0.36777  Biso   1.000  O
  O345     1.0000 0.26789  0.55278  0.85500  Biso   1.000  O
  O346     1.0000 0.22145  0.48687  0.87478  Biso   1.000  O
  O347     1.0000 0.74060  0.04577  0.64652  Biso   1.000  O
  O348     1.0000 0.78704  0.97986  0.62675  Biso   1.000  O
  O349     1.0000 0.01439  0.95796  0.55871  Biso   1.000  O
  O350     1.0000 0.96794  0.97773  0.62462  Biso   1.000  O
  O351     1.0000 0.50112  0.76350  0.05170  Biso   1.000  O
  O352     1.0000 0.53354  0.74372  0.11761  Biso   1.000  O
  O353     1.0000 0.50738  0.25649  0.43581  Biso   1.000  O
  O354     1.0000 0.47495  0.23671  0.36989  Biso   1.000  O
  O355     1.0000 0.99411  0.46497  0.94282  Biso   1.000  O
  O356     1.0000 0.04055  0.48474  0.87690  Biso   1.000  O
  O357     1.0000 0.90000  0.91517  0.48712  Biso   1.000  O
  O358     1.0000 0.88023  0.98108  0.53356  Biso   1.000  O
  O359     1.0000 0.10849  0.42218  0.00039  Biso   1.000  O
  O360     1.0000 0.12826  0.48809  0.96796  Biso   1.000  O
  O361     1.0000 0.60148  0.80629  0.99413  Biso   1.000  O
  O362     1.0000 0.62125  0.74038  0.02655  Biso   1.000  O
  O363     1.0000 0.40701  0.29928  0.50740  Biso   1.000  O
  O364     1.0000 0.38724  0.23337  0.46095  Biso   1.000  O
  O365     1.0000 0.94280  0.85760  0.60150  Biso   1.000  O
  O366     1.0000 0.87688  0.89002  0.62127  Biso   1.000  O
  O367     1.0000 0.44981  0.37087  0.39301  Biso   1.000  O
  O368     1.0000 0.38390  0.32443  0.37324  Biso   1.000  O
  O369     1.0000 0.06570  0.35059  0.90002  Biso   1.000  O
  O370     1.0000 0.13161  0.39703  0.88025  Biso   1.000  O
  O371     1.0000 0.55869  0.86386  0.09449  Biso   1.000  O
