data_image0
_cell_length_a       42.9245
_cell_length_b       42.9245
_cell_length_c       42.9245
_cell_angle_alpha    90
_cell_angle_beta     90
_cell_angle_gamma    90

_symmetry_space_group_name_H-M    "P 1"
_symmetry_int_tables_number       1

loop_
  _symmetry_equiv_pos_as_xyz
  'x, y, z'

loop_
  _atom_site_label
  _atom_site_occupancy
  _atom_site_fract_x
  _atom_site_fract_y
  _atom_site_fract_z
  _atom_site_thermal_displace_type
  _atom_site_B_iso_or_equiv
  _atom_site_type_symbol
  C1       1.0000 0.25000  0.33370  0.25000  Biso   1.000  C
  C2       1.0000 0.75000  0.66630  0.25000  Biso   1.000  C
  C3       1.0000 0.75000  0.33370  0.75000  Biso   1.000  C
  C4       1.0000 0.25000  0.66630  0.75000  Biso   1.000  C
  C5       1.0000 0.25000  0.25000  0.33370  Biso   1.000  C
  C6       1.0000 0.25000  0.75000  0.66630  Biso   1.000  C
  C7       1.0000 0.75000  0.75000  0.33370  Biso   1.000  C
  C8       1.0000 0.75000  0.25000  0.66630  Biso   1.000  C
  C9       1.0000 0.33370  0.25000  0.25000  Biso   1.000  C
  C10      1.0000 0.66630  0.25000  0.75000  Biso   1.000  C
  C11      1.0000 0.33370  0.75000  0.75000  Biso   1.000  C
  C12      1.0000 0.66630  0.75000  0.25000  Biso   1.000  C
  C13      1.0000 0.33370  0.25000  0.75000  Biso   1.000  C
  C14      1.0000 0.66630  0.75000  0.75000  Biso   1.000  C
  C15      1.0000 0.33370  0.75000  0.25000  Biso   1.000  C
  C16      1.0000 0.66630  0.25000  0.25000  Biso   1.000  C
  C17      1.0000 0.25000  0.25000  0.66630  Biso   1.000  C
  C18      1.0000 0.75000  0.25000  0.33370  Biso   1.000  C
  C19      1.0000 0.75000  0.75000  0.66630  Biso   1.000  C
  C20      1.0000 0.25000  0.75000  0.33370  Biso   1.000  C
  C21      1.0000 0.25000  0.33370  0.75000  Biso   1.000  C
  C22      1.0000 0.25000  0.66630  0.25000  Biso   1.000  C
  C23      1.0000 0.75000  0.33370  0.25000  Biso   1.000  C
  C24      1.0000 0.75000  0.66630  0.75000  Biso   1.000  C
  C25      1.0000 0.25000  0.83370  0.75000  Biso   1.000  C
  C26      1.0000 0.75000  0.16630  0.75000  Biso   1.000  C
  C27      1.0000 0.75000  0.83370  0.25000  Biso   1.000  C
  C28      1.0000 0.25000  0.16630  0.25000  Biso   1.000  C
  C29      1.0000 0.25000  0.75000  0.83370  Biso   1.000  C
  C30      1.0000 0.25000  0.25000  0.16630  Biso   1.000  C
  C31      1.0000 0.75000  0.25000  0.83370  Biso   1.000  C
  C32      1.0000 0.75000  0.75000  0.16630  Biso   1.000  C
  C33      1.0000 0.25000  0.75000  0.16630  Biso   1.000  C
  C34      1.0000 0.75000  0.75000  0.83370  Biso   1.000  C
  C35      1.0000 0.75000  0.25000  0.16630  Biso   1.000  C
  C36      1.0000 0.25000  0.25000  0.83370  Biso   1.000  C
  C37      1.0000 0.25000  0.83370  0.25000  Biso   1.000  C
  C38      1.0000 0.25000  0.16630  0.75000  Biso   1.000  C
  C39      1.0000 0.75000  0.83370  0.75000  Biso   1.000  C
  C40      1.0000 0.75000  0.16630  0.25000  Biso   1.000  C
  C41      1.0000 0.83370  0.25000  0.75000  Biso   1.000  C
  C42      1.0000 0.16630  0.25000  0.25000  Biso   1.000  C
  C43      1.0000 0.83370  0.75000  0.25000  Biso   1.000  C
  C44      1.0000 0.16630  0.75000  0.75000  Biso   1.000  C
  C45      1.0000 0.83370  0.25000  0.25000  Biso   1.000  C
  C46      1.0000 0.16630  0.75000  0.25000  Biso   1.000  C
  C47      1.0000 0.83370  0.75000  0.75000  Biso   1.000  C
  C48      1.0000 0.16630  0.25000  0.75000  Biso   1.000  C
  C49      1.0000 0.25000  0.36640  0.25000  Biso   1.000  C
  C50      1.0000 0.75000  0.63360  0.25000  Biso   1.000  C
  C51      1.0000 0.75000  0.36640  0.75000  Biso   1.000  C
  C52      1.0000 0.25000  0.63360  0.75000  Biso   1.000  C
  C53      1.0000 0.25000  0.25000  0.36640  Biso   1.000  C
  C54      1.0000 0.25000  0.75000  0.63360  Biso   1.000  C
  C55      1.0000 0.75000  0.75000  0.36640  Biso   1.000  C
  C56      1.0000 0.75000  0.25000  0.63360  Biso   1.000  C
  C57      1.0000 0.36640  0.25000  0.25000  Biso   1.000  C
  C58      1.0000 0.63360  0.25000  0.75000  Biso   1.000  C
  C59      1.0000 0.36640  0.75000  0.75000  Biso   1.000  C
  C60      1.0000 0.63360  0.75000  0.25000  Biso   1.000  C
  C61      1.0000 0.36640  0.25000  0.75000  Biso   1.000  C
  C62      1.0000 0.63360  0.75000  0.75000  Biso   1.000  C
  C63      1.0000 0.36640  0.75000  0.25000  Biso   1.000  C
  C64      1.0000 0.63360  0.25000  0.25000  Biso   1.000  C
  C65      1.0000 0.25000  0.25000  0.63360  Biso   1.000  C
  C66      1.0000 0.75000  0.25000  0.36640  Biso   1.000  C
  C67      1.0000 0.75000  0.75000  0.63360  Biso   1.000  C
  C68      1.0000 0.25000  0.75000  0.36640  Biso   1.000  C
  C69      1.0000 0.25000  0.36640  0.75000  Biso   1.000  C
  C70      1.0000 0.25000  0.63360  0.25000  Biso   1.000  C
  C71      1.0000 0.75000  0.36640  0.25000  Biso   1.000  C
  C72      1.0000 0.75000  0.63360  0.75000  Biso   1.000  C
  C73      1.0000 0.25000  0.86640  0.75000  Biso   1.000  C
  C74      1.0000 0.75000  0.13360  0.75000  Biso   1.000  C
  C75      1.0000 0.75000  0.86640  0.25000  Biso   1.000  C
  C76      1.0000 0.25000  0.13360  0.25000  Biso   1.000  C
  C77      1.0000 0.25000  0.75000  0.86640  Biso   1.000  C
  C78      1.0000 0.25000  0.25000  0.13360  Biso   1.000  C
  C79      1.0000 0.75000  0.25000  0.86640  Biso   1.000  C
  C80      1.0000 0.75000  0.75000  0.13360  Biso   1.000  C
  C81      1.0000 0.25000  0.75000  0.13360  Biso   1.000  C
  C82      1.0000 0.75000  0.75000  0.86640  Biso   1.000  C
  C83      1.0000 0.75000  0.25000  0.13360  Biso   1.000  C
  C84      1.0000 0.25000  0.25000  0.86640  Biso   1.000  C
  C85      1.0000 0.25000  0.86640  0.25000  Biso   1.000  C
  C86      1.0000 0.25000  0.13360  0.75000  Biso   1.000  C
  C87      1.0000 0.75000  0.86640  0.75000  Biso   1.000  C
  C88      1.0000 0.75000  0.13360  0.25000  Biso   1.000  C
  C89      1.0000 0.86640  0.25000  0.75000  Biso   1.000  C
  C90      1.0000 0.13360  0.25000  0.25000  Biso   1.000  C
  C91      1.0000 0.86640  0.75000  0.25000  Biso   1.000  C
  C92      1.0000 0.13360  0.75000  0.75000  Biso   1.000  C
  C93      1.0000 0.86640  0.25000  0.25000  Biso   1.000  C
  C94      1.0000 0.13360  0.75000  0.25000  Biso   1.000  C
  C95      1.0000 0.86640  0.75000  0.75000  Biso   1.000  C
  C96      1.0000 0.13360  0.25000  0.75000  Biso   1.000  C
  C97      1.0000 0.23130  0.38390  0.26870  Biso   1.000  C
  C98      1.0000 0.76870  0.61610  0.26870  Biso   1.000  C
  C99      1.0000 0.76870  0.38390  0.73130  Biso   1.000  C
  C100     1.0000 0.23130  0.61610  0.73130  Biso   1.000  C
  C101     1.0000 0.26870  0.23130  0.38390  Biso   1.000  C
  C102     1.0000 0.26870  0.76870  0.61610  Biso   1.000  C
  C103     1.0000 0.73130  0.76870  0.38390  Biso   1.000  C
  C104     1.0000 0.73130  0.23130  0.61610  Biso   1.000  C
  C105     1.0000 0.38390  0.26870  0.23130  Biso   1.000  C
  C106     1.0000 0.61610  0.26870  0.76870  Biso   1.000  C
  C107     1.0000 0.38390  0.73130  0.76870  Biso   1.000  C
  C108     1.0000 0.61610  0.73130  0.23130  Biso   1.000  C
  C109     1.0000 0.38390  0.23130  0.73130  Biso   1.000  C
  C110     1.0000 0.61610  0.76870  0.73130  Biso   1.000  C
  C111     1.0000 0.38390  0.76870  0.26870  Biso   1.000  C
  C112     1.0000 0.61610  0.23130  0.26870  Biso   1.000  C
  C113     1.0000 0.23130  0.26870  0.61610  Biso   1.000  C
  C114     1.0000 0.76870  0.26870  0.38390  Biso   1.000  C
  C115     1.0000 0.76870  0.73130  0.61610  Biso   1.000  C
  C116     1.0000 0.23130  0.73130  0.38390  Biso   1.000  C
  C117     1.0000 0.26870  0.38390  0.76870  Biso   1.000  C
  C118     1.0000 0.26870  0.61610  0.23130  Biso   1.000  C
  C119     1.0000 0.73130  0.38390  0.23130  Biso   1.000  C
  C120     1.0000 0.73130  0.61610  0.76870  Biso   1.000  C
  C121     1.0000 0.23130  0.88390  0.76870  Biso   1.000  C
  C122     1.0000 0.76870  0.11610  0.76870  Biso   1.000  C
  C123     1.0000 0.76870  0.88390  0.23130  Biso   1.000  C
  C124     1.0000 0.23130  0.11610  0.23130  Biso   1.000  C
  C125     1.0000 0.26870  0.73130  0.88390  Biso   1.000  C
  C126     1.0000 0.26870  0.26870  0.11610  Biso   1.000  C
  C127     1.0000 0.73130  0.26870  0.88390  Biso   1.000  C
  C128     1.0000 0.73130  0.73130  0.11610  Biso   1.000  C
  C129     1.0000 0.38390  0.76870  0.73130  Biso   1.000  C
  C130     1.0000 0.61610  0.76870  0.26870  Biso   1.000  C
  C131     1.0000 0.38390  0.23130  0.26870  Biso   1.000  C
  C132     1.0000 0.61610  0.23130  0.73130  Biso   1.000  C
  C133     1.0000 0.38390  0.73130  0.23130  Biso   1.000  C
  C134     1.0000 0.61610  0.26870  0.23130  Biso   1.000  C
  C135     1.0000 0.38390  0.26870  0.76870  Biso   1.000  C
  C136     1.0000 0.61610  0.73130  0.76870  Biso   1.000  C
  C137     1.0000 0.23130  0.76870  0.11610  Biso   1.000  C
  C138     1.0000 0.76870  0.76870  0.88390  Biso   1.000  C
  C139     1.0000 0.76870  0.23130  0.11610  Biso   1.000  C
  C140     1.0000 0.23130  0.23130  0.88390  Biso   1.000  C
  C141     1.0000 0.26870  0.88390  0.26870  Biso   1.000  C
  C142     1.0000 0.26870  0.11610  0.73130  Biso   1.000  C
  C143     1.0000 0.73130  0.88390  0.73130  Biso   1.000  C
  C144     1.0000 0.73130  0.11610  0.26870  Biso   1.000  C
  C145     1.0000 0.73130  0.38390  0.76870  Biso   1.000  C
  C146     1.0000 0.26870  0.61610  0.76870  Biso   1.000  C
  C147     1.0000 0.26870  0.38390  0.23130  Biso   1.000  C
  C148     1.0000 0.73130  0.61610  0.23130  Biso   1.000  C
  C149     1.0000 0.76870  0.23130  0.88390  Biso   1.000  C
  C150     1.0000 0.76870  0.76870  0.11610  Biso   1.000  C
  C151     1.0000 0.23130  0.76870  0.88390  Biso   1.000  C
  C152     1.0000 0.23130  0.23130  0.11610  Biso   1.000  C
  C153     1.0000 0.88390  0.26870  0.73130  Biso   1.000  C
  C154     1.0000 0.11610  0.26870  0.26870  Biso   1.000  C
  C155     1.0000 0.88390  0.73130  0.26870  Biso   1.000  C
  C156     1.0000 0.11610  0.73130  0.73130  Biso   1.000  C
  C157     1.0000 0.88390  0.23130  0.23130  Biso   1.000  C
  C158     1.0000 0.11610  0.76870  0.23130  Biso   1.000  C
  C159     1.0000 0.88390  0.76870  0.76870  Biso   1.000  C
  C160     1.0000 0.11610  0.23130  0.76870  Biso   1.000  C
  C161     1.0000 0.73130  0.26870  0.11610  Biso   1.000  C
  C162     1.0000 0.26870  0.26870  0.88390  Biso   1.000  C
  C163     1.0000 0.26870  0.73130  0.11610  Biso   1.000  C
  C164     1.0000 0.73130  0.73130  0.88390  Biso   1.000  C
  C165     1.0000 0.76870  0.38390  0.26870  Biso   1.000  C
  C166     1.0000 0.76870  0.61610  0.73130  Biso   1.000  C
  C167     1.0000 0.23130  0.38390  0.73130  Biso   1.000  C
  C168     1.0000 0.23130  0.61610  0.26870  Biso   1.000  C
  C169     1.0000 0.73130  0.88390  0.26870  Biso   1.000  C
  C170     1.0000 0.26870  0.11610  0.26870  Biso   1.000  C
  C171     1.0000 0.26870  0.88390  0.73130  Biso   1.000  C
  C172     1.0000 0.73130  0.11610  0.73130  Biso   1.000  C
  C173     1.0000 0.76870  0.73130  0.38390  Biso   1.000  C
  C174     1.0000 0.76870  0.26870  0.61610  Biso   1.000  C
  C175     1.0000 0.23130  0.26870  0.38390  Biso   1.000  C
  C176     1.0000 0.23130  0.73130  0.61610  Biso   1.000  C
  C177     1.0000 0.88390  0.76870  0.23130  Biso   1.000  C
  C178     1.0000 0.11610  0.76870  0.76870  Biso   1.000  C
  C179     1.0000 0.88390  0.23130  0.76870  Biso   1.000  C
  C180     1.0000 0.11610  0.23130  0.23130  Biso   1.000  C
  C181     1.0000 0.88390  0.73130  0.73130  Biso   1.000  C
  C182     1.0000 0.11610  0.26870  0.73130  Biso   1.000  C
  C183     1.0000 0.88390  0.26870  0.26870  Biso   1.000  C
  C184     1.0000 0.11610  0.73130  0.26870  Biso   1.000  C
  C185     1.0000 0.73130  0.76870  0.61610  Biso   1.000  C
  C186     1.0000 0.26870  0.76870  0.38390  Biso   1.000  C
  C187     1.0000 0.26870  0.23130  0.61610  Biso   1.000  C
  C188     1.0000 0.73130  0.23130  0.38390  Biso   1.000  C
  C189     1.0000 0.76870  0.88390  0.76870  Biso   1.000  C
  C190     1.0000 0.76870  0.11610  0.23130  Biso   1.000  C
  C191     1.0000 0.23130  0.88390  0.23130  Biso   1.000  C
  C192     1.0000 0.23130  0.11610  0.76870  Biso   1.000  C
  H1       1.0000 0.21780  0.37380  0.28220  Biso   1.000  H
  H2       1.0000 0.78220  0.62620  0.28220  Biso   1.000  H
  H3       1.0000 0.78220  0.37380  0.71780  Biso   1.000  H
  H4       1.0000 0.21780  0.62620  0.71780  Biso   1.000  H
  H5       1.0000 0.28220  0.21780  0.37380  Biso   1.000  H
  H6       1.0000 0.28220  0.78220  0.62620  Biso   1.000  H
  H7       1.0000 0.71780  0.78220  0.37380  Biso   1.000  H
  H8       1.0000 0.71780  0.21780  0.62620  Biso   1.000  H
  H9       1.0000 0.37380  0.28220  0.21780  Biso   1.000  H
  H10      1.0000 0.62620  0.28220  0.78220  Biso   1.000  H
  H11      1.0000 0.37380  0.71780  0.78220  Biso   1.000  H
  H12      1.0000 0.62620  0.71780  0.21780  Biso   1.000  H
  H13      1.0000 0.37380  0.21780  0.71780  Biso   1.000  H
  H14      1.0000 0.62620  0.78220  0.71780  Biso   1.000  H
  H15      1.0000 0.37380  0.78220  0.28220  Biso   1.000  H
  H16      1.0000 0.62620  0.21780  0.28220  Biso   1.000  H
  H17      1.0000 0.21780  0.28220  0.62620  Biso   1.000  H
  H18      1.0000 0.78220  0.28220  0.37380  Biso   1.000  H
  H19      1.0000 0.78220  0.71780  0.62620  Biso   1.000  H
  H20      1.0000 0.21780  0.71780  0.37380  Biso   1.000  H
  H21      1.0000 0.28220  0.37380  0.78220  Biso   1.000  H
  H22      1.0000 0.28220  0.62620  0.21780  Biso   1.000  H
  H23      1.0000 0.71780  0.37380  0.21780  Biso   1.000  H
  H24      1.0000 0.71780  0.62620  0.78220  Biso   1.000  H
  H25      1.0000 0.21780  0.87380  0.78220  Biso   1.000  H
  H26      1.0000 0.78220  0.12620  0.78220  Biso   1.000  H
  H27      1.0000 0.78220  0.87380  0.21780  Biso   1.000  H
  H28      1.0000 0.21780  0.12620  0.21780  Biso   1.000  H
  H29      1.0000 0.28220  0.71780  0.87380  Biso   1.000  H
  H30      1.0000 0.28220  0.28220  0.12620  Biso   1.000  H
  H31      1.0000 0.71780  0.28220  0.87380  Biso   1.000  H
  H32      1.0000 0.71780  0.71780  0.12620  Biso   1.000  H
  H33      1.0000 0.37380  0.78220  0.71780  Biso   1.000  H
  H34      1.0000 0.62620  0.78220  0.28220  Biso   1.000  H
  H35      1.0000 0.37380  0.21780  0.28220  Biso   1.000  H
  H36      1.0000 0.62620  0.21780  0.71780  Biso   1.000  H
  H37      1.0000 0.37380  0.71780  0.21780  Biso   1.000  H
  H38      1.0000 0.62620  0.28220  0.21780  Biso   1.000  H
  H39      1.0000 0.37380  0.28220  0.78220  Biso   1.000  H
  H40      1.0000 0.62620  0.71780  0.78220  Biso   1.000  H
  H41      1.0000 0.21780  0.78220  0.12620  Biso   1.000  H
  H42      1.0000 0.78220  0.78220  0.87380  Biso   1.000  H
  H43      1.0000 0.78220  0.21780  0.12620  Biso   1.000  H
  H44      1.0000 0.21780  0.21780  0.87380  Biso   1.000  H
  H45      1.0000 0.28220  0.87380  0.28220  Biso   1.000  H
  H46      1.0000 0.28220  0.12620  0.71780  Biso   1.000  H
  H47      1.0000 0.71780  0.87380  0.71780  Biso   1.000  H
  H48      1.0000 0.71780  0.12620  0.28220  Biso   1.000  H
  H49      1.0000 0.71780  0.37380  0.78220  Biso   1.000  H
  H50      1.0000 0.28220  0.62620  0.78220  Biso   1.000  H
  H51      1.0000 0.28220  0.37380  0.21780  Biso   1.000  H
  H52      1.0000 0.71780  0.62620  0.21780  Biso   1.000  H
  H53      1.0000 0.78220  0.21780  0.87380  Biso   1.000  H
  H54      1.0000 0.78220  0.78220  0.12620  Biso   1.000  H
  H55      1.0000 0.21780  0.78220  0.87380  Biso   1.000  H
  H56      1.0000 0.21780  0.21780  0.12620  Biso   1.000  H
  H57      1.0000 0.87380  0.28220  0.71780  Biso   1.000  H
  H58      1.0000 0.12620  0.28220  0.28220  Biso   1.000  H
  H59      1.0000 0.87380  0.71780  0.28220  Biso   1.000  H
  H60      1.0000 0.12620  0.71780  0.71780  Biso   1.000  H
  H61      1.0000 0.87380  0.21780  0.21780  Biso   1.000  H
  H62      1.0000 0.12620  0.78220  0.21780  Biso   1.000  H
  H63      1.0000 0.87380  0.78220  0.78220  Biso   1.000  H
  H64      1.0000 0.12620  0.21780  0.78220  Biso   1.000  H
  H65      1.0000 0.71780  0.28220  0.12620  Biso   1.000  H
  H66      1.0000 0.28220  0.28220  0.87380  Biso   1.000  H
  H67      1.0000 0.28220  0.71780  0.12620  Biso   1.000  H
  H68      1.0000 0.71780  0.71780  0.87380  Biso   1.000  H
  H69      1.0000 0.78220  0.37380  0.28220  Biso   1.000  H
  H70      1.0000 0.78220  0.62620  0.71780  Biso   1.000  H
  H71      1.0000 0.21780  0.37380  0.71780  Biso   1.000  H
  H72      1.0000 0.21780  0.62620  0.28220  Biso   1.000  H
  H73      1.0000 0.71780  0.87380  0.28220  Biso   1.000  H
  H74      1.0000 0.28220  0.12620  0.28220  Biso   1.000  H
  H75      1.0000 0.28220  0.87380  0.71780  Biso   1.000  H
  H76      1.0000 0.71780  0.12620  0.71780  Biso   1.000  H
  H77      1.0000 0.78220  0.71780  0.37380  Biso   1.000  H
  H78      1.0000 0.78220  0.28220  0.62620  Biso   1.000  H
  H79      1.0000 0.21780  0.28220  0.37380  Biso   1.000  H
  H80      1.0000 0.21780  0.71780  0.62620  Biso   1.000  H
  H81      1.0000 0.87380  0.78220  0.21780  Biso   1.000  H
  H82      1.0000 0.12620  0.78220  0.78220  Biso   1.000  H
  H83      1.0000 0.87380  0.21780  0.78220  Biso   1.000  H
  H84      1.0000 0.12620  0.21780  0.21780  Biso   1.000  H
  H85      1.0000 0.87380  0.71780  0.71780  Biso   1.000  H
  H86      1.0000 0.12620  0.28220  0.71780  Biso   1.000  H
  H87      1.0000 0.87380  0.28220  0.28220  Biso   1.000  H
  H88      1.0000 0.12620  0.71780  0.28220  Biso   1.000  H
  H89      1.0000 0.71780  0.78220  0.62620  Biso   1.000  H
  H90      1.0000 0.28220  0.78220  0.37380  Biso   1.000  H
  H91      1.0000 0.28220  0.21780  0.62620  Biso   1.000  H
  H92      1.0000 0.71780  0.21780  0.37380  Biso   1.000  H
  H93      1.0000 0.78220  0.87380  0.78220  Biso   1.000  H
  H94      1.0000 0.78220  0.12620  0.21780  Biso   1.000  H
  H95      1.0000 0.21780  0.87380  0.21780  Biso   1.000  H
  H96      1.0000 0.21780  0.12620  0.78220  Biso   1.000  H
  C193     1.0000 0.23180  0.41710  0.26820  Biso   1.000  C
  C194     1.0000 0.76820  0.58290  0.26820  Biso   1.000  C
  C195     1.0000 0.76820  0.41710  0.73180  Biso   1.000  C
  C196     1.0000 0.23180  0.58290  0.73180  Biso   1.000  C
  C197     1.0000 0.26820  0.23180  0.41710  Biso   1.000  C
  C198     1.0000 0.26820  0.76820  0.58290  Biso   1.000  C
  C199     1.0000 0.73180  0.76820  0.41710  Biso   1.000  C
  C200     1.0000 0.73180  0.23180  0.58290  Biso   1.000  C
  C201     1.0000 0.41710  0.26820  0.23180  Biso   1.000  C
  C202     1.0000 0.58290  0.26820  0.76820  Biso   1.000  C
  C203     1.0000 0.41710  0.73180  0.76820  Biso   1.000  C
  C204     1.0000 0.58290  0.73180  0.23180  Biso   1.000  C
  C205     1.0000 0.41710  0.23180  0.73180  Biso   1.000  C
  C206     1.0000 0.58290  0.76820  0.73180  Biso   1.000  C
  C207     1.0000 0.41710  0.76820  0.26820  Biso   1.000  C
  C208     1.0000 0.58290  0.23180  0.26820  Biso   1.000  C
  C209     1.0000 0.23180  0.26820  0.58290  Biso   1.000  C
  C210     1.0000 0.76820  0.26820  0.41710  Biso   1.000  C
  C211     1.0000 0.76820  0.73180  0.58290  Biso   1.000  C
  C212     1.0000 0.23180  0.73180  0.41710  Biso   1.000  C
  C213     1.0000 0.26820  0.41710  0.76820  Biso   1.000  C
  C214     1.0000 0.26820  0.58290  0.23180  Biso   1.000  C
  C215     1.0000 0.73180  0.41710  0.23180  Biso   1.000  C
  C216     1.0000 0.73180  0.58290  0.76820  Biso   1.000  C
  C217     1.0000 0.23180  0.91710  0.76820  Biso   1.000  C
  C218     1.0000 0.76820  0.08290  0.76820  Biso   1.000  C
  C219     1.0000 0.76820  0.91710  0.23180  Biso   1.000  C
  C220     1.0000 0.23180  0.08290  0.23180  Biso   1.000  C
  C221     1.0000 0.26820  0.73180  0.91710  Biso   1.000  C
  C222     1.0000 0.26820  0.26820  0.08290  Biso   1.000  C
  C223     1.0000 0.73180  0.26820  0.91710  Biso   1.000  C
  C224     1.0000 0.73180  0.73180  0.08290  Biso   1.000  C
  C225     1.0000 0.41710  0.76820  0.73180  Biso   1.000  C
  C226     1.0000 0.58290  0.76820  0.26820  Biso   1.000  C
  C227     1.0000 0.41710  0.23180  0.26820  Biso   1.000  C
  C228     1.0000 0.58290  0.23180  0.73180  Biso   1.000  C
  C229     1.0000 0.41710  0.73180  0.23180  Biso   1.000  C
  C230     1.0000 0.58290  0.26820  0.23180  Biso   1.000  C
  C231     1.0000 0.41710  0.26820  0.76820  Biso   1.000  C
  C232     1.0000 0.58290  0.73180  0.76820  Biso   1.000  C
  C233     1.0000 0.23180  0.76820  0.08290  Biso   1.000  C
  C234     1.0000 0.76820  0.76820  0.91710  Biso   1.000  C
  C235     1.0000 0.76820  0.23180  0.08290  Biso   1.000  C
  C236     1.0000 0.23180  0.23180  0.91710  Biso   1.000  C
  C237     1.0000 0.26820  0.91710  0.26820  Biso   1.000  C
  C238     1.0000 0.26820  0.08290  0.73180  Biso   1.000  C
  C239     1.0000 0.73180  0.91710  0.73180  Biso   1.000  C
  C240     1.0000 0.73180  0.08290  0.26820  Biso   1.000  C
  C241     1.0000 0.73180  0.41710  0.76820  Biso   1.000  C
  C242     1.0000 0.26820  0.58290  0.76820  Biso   1.000  C
  C243     1.0000 0.26820  0.41710  0.23180  Biso   1.000  C
  C244     1.0000 0.73180  0.58290  0.23180  Biso   1.000  C
  C245     1.0000 0.76820  0.23180  0.91710  Biso   1.000  C
  C246     1.0000 0.76820  0.76820  0.08290  Biso   1.000  C
  C247     1.0000 0.23180  0.76820  0.91710  Biso   1.000  C
  C248     1.0000 0.23180  0.23180  0.08290  Biso   1.000  C
  C249     1.0000 0.91710  0.26820  0.73180  Biso   1.000  C
  C250     1.0000 0.08290  0.26820  0.26820  Biso   1.000  C
  C251     1.0000 0.91710  0.73180  0.26820  Biso   1.000  C
  C252     1.0000 0.08290  0.73180  0.73180  Biso   1.000  C
  C253     1.0000 0.91710  0.23180  0.23180  Biso   1.000  C
  C254     1.0000 0.08290  0.76820  0.23180  Biso   1.000  C
  C255     1.0000 0.91710  0.76820  0.76820  Biso   1.000  C
  C256     1.0000 0.08290  0.23180  0.76820  Biso   1.000  C
  C257     1.0000 0.73180  0.26820  0.08290  Biso   1.000  C
  C258     1.0000 0.26820  0.26820  0.91710  Biso   1.000  C
  C259     1.0000 0.26820  0.73180  0.08290  Biso   1.000  C
  C260     1.0000 0.73180  0.73180  0.91710  Biso   1.000  C
  C261     1.0000 0.76820  0.41710  0.26820  Biso   1.000  C
  C262     1.0000 0.76820  0.58290  0.73180  Biso   1.000  C
  C263     1.0000 0.23180  0.41710  0.73180  Biso   1.000  C
  C264     1.0000 0.23180  0.58290  0.26820  Biso   1.000  C
  C265     1.0000 0.73180  0.91710  0.26820  Biso   1.000  C
  C266     1.0000 0.26820  0.08290  0.26820  Biso   1.000  C
  C267     1.0000 0.26820  0.91710  0.73180  Biso   1.000  C
  C268     1.0000 0.73180  0.08290  0.73180  Biso   1.000  C
  C269     1.0000 0.76820  0.73180  0.41710  Biso   1.000  C
  C270     1.0000 0.76820  0.26820  0.58290  Biso   1.000  C
  C271     1.0000 0.23180  0.26820  0.41710  Biso   1.000  C
  C272     1.0000 0.23180  0.73180  0.58290  Biso   1.000  C
  C273     1.0000 0.91710  0.76820  0.23180  Biso   1.000  C
  C274     1.0000 0.08290  0.76820  0.76820  Biso   1.000  C
  C275     1.0000 0.91710  0.23180  0.76820  Biso   1.000  C
  C276     1.0000 0.08290  0.23180  0.23180  Biso   1.000  C
  C277     1.0000 0.91710  0.73180  0.73180  Biso   1.000  C
  C278     1.0000 0.08290  0.26820  0.73180  Biso   1.000  C
  C279     1.0000 0.91710  0.26820  0.26820  Biso   1.000  C
  C280     1.0000 0.08290  0.73180  0.26820  Biso   1.000  C
  C281     1.0000 0.73180  0.76820  0.58290  Biso   1.000  C
  C282     1.0000 0.26820  0.76820  0.41710  Biso   1.000  C
  C283     1.0000 0.26820  0.23180  0.58290  Biso   1.000  C
  C284     1.0000 0.73180  0.23180  0.41710  Biso   1.000  C
  C285     1.0000 0.76820  0.91710  0.76820  Biso   1.000  C
  C286     1.0000 0.76820  0.08290  0.23180  Biso   1.000  C
  C287     1.0000 0.23180  0.91710  0.23180  Biso   1.000  C
  C288     1.0000 0.23180  0.08290  0.76820  Biso   1.000  C
  H97      1.0000 0.21830  0.42730  0.28170  Biso   1.000  H
  H98      1.0000 0.78170  0.57270  0.28170  Biso   1.000  H
  H99      1.0000 0.78170  0.42730  0.71830  Biso   1.000  H
  H100     1.0000 0.21830  0.57270  0.71830  Biso   1.000  H
  H101     1.0000 0.28170  0.21830  0.42730  Biso   1.000  H
  H102     1.0000 0.28170  0.78170  0.57270  Biso   1.000  H
  H103     1.0000 0.71830  0.78170  0.42730  Biso   1.000  H
  H104     1.0000 0.71830  0.21830  0.57270  Biso   1.000  H
  H105     1.0000 0.42730  0.28170  0.21830  Biso   1.000  H
  H106     1.0000 0.57270  0.28170  0.78170  Biso   1.000  H
  H107     1.0000 0.42730  0.71830  0.78170  Biso   1.000  H
  H108     1.0000 0.57270  0.71830  0.21830  Biso   1.000  H
  H109     1.0000 0.42730  0.21830  0.71830  Biso   1.000  H
  H110     1.0000 0.57270  0.78170  0.71830  Biso   1.000  H
  H111     1.0000 0.42730  0.78170  0.28170  Biso   1.000  H
  H112     1.0000 0.57270  0.21830  0.28170  Biso   1.000  H
  H113     1.0000 0.21830  0.28170  0.57270  Biso   1.000  H
  H114     1.0000 0.78170  0.28170  0.42730  Biso   1.000  H
  H115     1.0000 0.78170  0.71830  0.57270  Biso   1.000  H
  H116     1.0000 0.21830  0.71830  0.42730  Biso   1.000  H
  H117     1.0000 0.28170  0.42730  0.78170  Biso   1.000  H
  H118     1.0000 0.28170  0.57270  0.21830  Biso   1.000  H
  H119     1.0000 0.71830  0.42730  0.21830  Biso   1.000  H
  H120     1.0000 0.71830  0.57270  0.78170  Biso   1.000  H
  H121     1.0000 0.21830  0.92730  0.78170  Biso   1.000  H
  H122     1.0000 0.78170  0.07270  0.78170  Biso   1.000  H
  H123     1.0000 0.78170  0.92730  0.21830  Biso   1.000  H
  H124     1.0000 0.21830  0.07270  0.21830  Biso   1.000  H
  H125     1.0000 0.28170  0.71830  0.92730  Biso   1.000  H
  H126     1.0000 0.28170  0.28170  0.07270  Biso   1.000  H
  H127     1.0000 0.71830  0.28170  0.92730  Biso   1.000  H
  H128     1.0000 0.71830  0.71830  0.07270  Biso   1.000  H
  H129     1.0000 0.42730  0.78170  0.71830  Biso   1.000  H
  H130     1.0000 0.57270  0.78170  0.28170  Biso   1.000  H
  H131     1.0000 0.42730  0.21830  0.28170  Biso   1.000  H
  H132     1.0000 0.57270  0.21830  0.71830  Biso   1.000  H
  H133     1.0000 0.42730  0.71830  0.21830  Biso   1.000  H
  H134     1.0000 0.57270  0.28170  0.21830  Biso   1.000  H
  H135     1.0000 0.42730  0.28170  0.78170  Biso   1.000  H
  H136     1.0000 0.57270  0.71830  0.78170  Biso   1.000  H
  H137     1.0000 0.21830  0.78170  0.07270  Biso   1.000  H
  H138     1.0000 0.78170  0.78170  0.92730  Biso   1.000  H
  H139     1.0000 0.78170  0.21830  0.07270  Biso   1.000  H
  H140     1.0000 0.21830  0.21830  0.92730  Biso   1.000  H
  H141     1.0000 0.28170  0.92730  0.28170  Biso   1.000  H
  H142     1.0000 0.28170  0.07270  0.71830  Biso   1.000  H
  H143     1.0000 0.71830  0.92730  0.71830  Biso   1.000  H
  H144     1.0000 0.71830  0.07270  0.28170  Biso   1.000  H
  H145     1.0000 0.71830  0.42730  0.78170  Biso   1.000  H
  H146     1.0000 0.28170  0.57270  0.78170  Biso   1.000  H
  H147     1.0000 0.28170  0.42730  0.21830  Biso   1.000  H
  H148     1.0000 0.71830  0.57270  0.21830  Biso   1.000  H
  H149     1.0000 0.78170  0.21830  0.92730  Biso   1.000  H
  H150     1.0000 0.78170  0.78170  0.07270  Biso   1.000  H
  H151     1.0000 0.21830  0.78170  0.92730  Biso   1.000  H
  H152     1.0000 0.21830  0.21830  0.07270  Biso   1.000  H
  H153     1.0000 0.92730  0.28170  0.71830  Biso   1.000  H
  H154     1.0000 0.07270  0.28170  0.28170  Biso   1.000  H
  H155     1.0000 0.92730  0.71830  0.28170  Biso   1.000  H
  H156     1.0000 0.07270  0.71830  0.71830  Biso   1.000  H
  H157     1.0000 0.92730  0.21830  0.21830  Biso   1.000  H
  H158     1.0000 0.07270  0.78170  0.21830  Biso   1.000  H
  H159     1.0000 0.92730  0.78170  0.78170  Biso   1.000  H
  H160     1.0000 0.07270  0.21830  0.78170  Biso   1.000  H
  H161     1.0000 0.71830  0.28170  0.07270  Biso   1.000  H
  H162     1.0000 0.28170  0.28170  0.92730  Biso   1.000  H
  H163     1.0000 0.28170  0.71830  0.07270  Biso   1.000  H
  H164     1.0000 0.71830  0.71830  0.92730  Biso   1.000  H
  H165     1.0000 0.78170  0.42730  0.28170  Biso   1.000  H
  H166     1.0000 0.78170  0.57270  0.71830  Biso   1.000  H
  H167     1.0000 0.21830  0.42730  0.71830  Biso   1.000  H
  H168     1.0000 0.21830  0.57270  0.28170  Biso   1.000  H
  H169     1.0000 0.71830  0.92730  0.28170  Biso   1.000  H
  H170     1.0000 0.28170  0.07270  0.28170  Biso   1.000  H
  H171     1.0000 0.28170  0.92730  0.71830  Biso   1.000  H
  H172     1.0000 0.71830  0.07270  0.71830  Biso   1.000  H
  H173     1.0000 0.78170  0.71830  0.42730  Biso   1.000  H
  H174     1.0000 0.78170  0.28170  0.57270  Biso   1.000  H
  H175     1.0000 0.21830  0.28170  0.42730  Biso   1.000  H
  H176     1.0000 0.21830  0.71830  0.57270  Biso   1.000  H
  H177     1.0000 0.92730  0.78170  0.21830  Biso   1.000  H
  H178     1.0000 0.07270  0.78170  0.78170  Biso   1.000  H
  H179     1.0000 0.92730  0.21830  0.78170  Biso   1.000  H
  H180     1.0000 0.07270  0.21830  0.21830  Biso   1.000  H
  H181     1.0000 0.92730  0.71830  0.71830  Biso   1.000  H
  H182     1.0000 0.07270  0.28170  0.71830  Biso   1.000  H
  H183     1.0000 0.92730  0.28170  0.28170  Biso   1.000  H
  H184     1.0000 0.07270  0.71830  0.28170  Biso   1.000  H
  H185     1.0000 0.71830  0.78170  0.57270  Biso   1.000  H
  H186     1.0000 0.28170  0.78170  0.42730  Biso   1.000  H
  H187     1.0000 0.28170  0.21830  0.57270  Biso   1.000  H
  H188     1.0000 0.71830  0.21830  0.42730  Biso   1.000  H
  H189     1.0000 0.78170  0.92730  0.78170  Biso   1.000  H
  H190     1.0000 0.78170  0.07270  0.21830  Biso   1.000  H
  H191     1.0000 0.21830  0.92730  0.21830  Biso   1.000  H
  H192     1.0000 0.21830  0.07270  0.78170  Biso   1.000  H
  C289     1.0000 0.25000  0.43510  0.25000  Biso   1.000  C
  C290     1.0000 0.75000  0.56490  0.25000  Biso   1.000  C
  C291     1.0000 0.75000  0.43510  0.75000  Biso   1.000  C
  C292     1.0000 0.25000  0.56490  0.75000  Biso   1.000  C
  C293     1.0000 0.25000  0.25000  0.43510  Biso   1.000  C
  C294     1.0000 0.25000  0.75000  0.56490  Biso   1.000  C
  C295     1.0000 0.75000  0.75000  0.43510  Biso   1.000  C
  C296     1.0000 0.75000  0.25000  0.56490  Biso   1.000  C
  C297     1.0000 0.43510  0.25000  0.25000  Biso   1.000  C
  C298     1.0000 0.56490  0.25000  0.75000  Biso   1.000  C
  C299     1.0000 0.43510  0.75000  0.75000  Biso   1.000  C
  C300     1.0000 0.56490  0.75000  0.25000  Biso   1.000  C
  C301     1.0000 0.43510  0.25000  0.75000  Biso   1.000  C
  C302     1.0000 0.56490  0.75000  0.75000  Biso   1.000  C
  C303     1.0000 0.43510  0.75000  0.25000  Biso   1.000  C
  C304     1.0000 0.56490  0.25000  0.25000  Biso   1.000  C
  C305     1.0000 0.25000  0.25000  0.56490  Biso   1.000  C
  C306     1.0000 0.75000  0.25000  0.43510  Biso   1.000  C
  C307     1.0000 0.75000  0.75000  0.56490  Biso   1.000  C
  C308     1.0000 0.25000  0.75000  0.43510  Biso   1.000  C
  C309     1.0000 0.25000  0.43510  0.75000  Biso   1.000  C
  C310     1.0000 0.25000  0.56490  0.25000  Biso   1.000  C
  C311     1.0000 0.75000  0.43510  0.25000  Biso   1.000  C
  C312     1.0000 0.75000  0.56490  0.75000  Biso   1.000  C
  C313     1.0000 0.25000  0.93510  0.75000  Biso   1.000  C
  C314     1.0000 0.75000  0.06490  0.75000  Biso   1.000  C
  C315     1.0000 0.75000  0.93510  0.25000  Biso   1.000  C
  C316     1.0000 0.25000  0.06490  0.25000  Biso   1.000  C
  C317     1.0000 0.25000  0.75000  0.93510  Biso   1.000  C
  C318     1.0000 0.25000  0.25000  0.06490  Biso   1.000  C
  C319     1.0000 0.75000  0.25000  0.93510  Biso   1.000  C
  C320     1.0000 0.75000  0.75000  0.06490  Biso   1.000  C
  C321     1.0000 0.25000  0.75000  0.06490  Biso   1.000  C
  C322     1.0000 0.75000  0.75000  0.93510  Biso   1.000  C
  C323     1.0000 0.75000  0.25000  0.06490  Biso   1.000  C
  C324     1.0000 0.25000  0.25000  0.93510  Biso   1.000  C
  C325     1.0000 0.25000  0.93510  0.25000  Biso   1.000  C
  C326     1.0000 0.25000  0.06490  0.75000  Biso   1.000  C
  C327     1.0000 0.75000  0.93510  0.75000  Biso   1.000  C
  C328     1.0000 0.75000  0.06490  0.25000  Biso   1.000  C
  C329     1.0000 0.93510  0.25000  0.75000  Biso   1.000  C
  C330     1.0000 0.06490  0.25000  0.25000  Biso   1.000  C
  C331     1.0000 0.93510  0.75000  0.25000  Biso   1.000  C
  C332     1.0000 0.06490  0.75000  0.75000  Biso   1.000  C
  C333     1.0000 0.93510  0.25000  0.25000  Biso   1.000  C
  C334     1.0000 0.06490  0.75000  0.25000  Biso   1.000  C
  C335     1.0000 0.93510  0.75000  0.75000  Biso   1.000  C
  C336     1.0000 0.06490  0.25000  0.75000  Biso   1.000  C
  C337     1.0000 0.25000  0.46720  0.25000  Biso   1.000  C
  C338     1.0000 0.75000  0.53280  0.25000  Biso   1.000  C
  C339     1.0000 0.75000  0.46720  0.75000  Biso   1.000  C
  C340     1.0000 0.25000  0.53280  0.75000  Biso   1.000  C
  C341     1.0000 0.25000  0.25000  0.46720  Biso   1.000  C
  C342     1.0000 0.25000  0.75000  0.53280  Biso   1.000  C
  C343     1.0000 0.75000  0.75000  0.46720  Biso   1.000  C
  C344     1.0000 0.75000  0.25000  0.53280  Biso   1.000  C
  C345     1.0000 0.46720  0.25000  0.25000  Biso   1.000  C
  C346     1.0000 0.53280  0.25000  0.75000  Biso   1.000  C
  C347     1.0000 0.46720  0.75000  0.75000  Biso   1.000  C
  C348     1.0000 0.53280  0.75000  0.25000  Biso   1.000  C
  C349     1.0000 0.46720  0.25000  0.75000  Biso   1.000  C
  C350     1.0000 0.53280  0.75000  0.75000  Biso   1.000  C
  C351     1.0000 0.46720  0.75000  0.25000  Biso   1.000  C
  C352     1.0000 0.53280  0.25000  0.25000  Biso   1.000  C
  C353     1.0000 0.25000  0.25000  0.53280  Biso   1.000  C
  C354     1.0000 0.75000  0.25000  0.46720  Biso   1.000  C
  C355     1.0000 0.75000  0.75000  0.53280  Biso   1.000  C
  C356     1.0000 0.25000  0.75000  0.46720  Biso   1.000  C
  C357     1.0000 0.25000  0.46720  0.75000  Biso   1.000  C
  C358     1.0000 0.25000  0.53280  0.25000  Biso   1.000  C
  C359     1.0000 0.75000  0.46720  0.25000  Biso   1.000  C
  C360     1.0000 0.75000  0.53280  0.75000  Biso   1.000  C
  C361     1.0000 0.25000  0.96720  0.75000  Biso   1.000  C
  C362     1.0000 0.75000  0.03280  0.75000  Biso   1.000  C
  C363     1.0000 0.75000  0.96720  0.25000  Biso   1.000  C
  C364     1.0000 0.25000  0.03280  0.25000  Biso   1.000  C
  C365     1.0000 0.25000  0.75000  0.96720  Biso   1.000  C
  C366     1.0000 0.25000  0.25000  0.03280  Biso   1.000  C
  C367     1.0000 0.75000  0.25000  0.96720  Biso   1.000  C
  C368     1.0000 0.75000  0.75000  0.03280  Biso   1.000  C
  C369     1.0000 0.25000  0.75000  0.03280  Biso   1.000  C
  C370     1.0000 0.75000  0.75000  0.96720  Biso   1.000  C
  C371     1.0000 0.75000  0.25000  0.03280  Biso   1.000  C
  C372     1.0000 0.25000  0.25000  0.96720  Biso   1.000  C
  C373     1.0000 0.25000  0.96720  0.25000  Biso   1.000  C
  C374     1.0000 0.25000  0.03280  0.75000  Biso   1.000  C
  C375     1.0000 0.75000  0.96720  0.75000  Biso   1.000  C
  C376     1.0000 0.75000  0.03280  0.25000  Biso   1.000  C
  C377     1.0000 0.96720  0.25000  0.75000  Biso   1.000  C
  C378     1.0000 0.03280  0.25000  0.25000  Biso   1.000  C
  C379     1.0000 0.96720  0.75000  0.25000  Biso   1.000  C
  C380     1.0000 0.03280  0.75000  0.75000  Biso   1.000  C
  C381     1.0000 0.96720  0.25000  0.25000  Biso   1.000  C
  C382     1.0000 0.03280  0.75000  0.25000  Biso   1.000  C
  C383     1.0000 0.96720  0.75000  0.75000  Biso   1.000  C
  C384     1.0000 0.03280  0.25000  0.75000  Biso   1.000  C
  C385     1.0000 0.23060  0.48340  0.23060  Biso   1.000  C
  C386     1.0000 0.76940  0.51660  0.23060  Biso   1.000  C
  C387     1.0000 0.76940  0.48340  0.76940  Biso   1.000  C
  C388     1.0000 0.23060  0.51660  0.76940  Biso   1.000  C
  C389     1.0000 0.23060  0.23060  0.48340  Biso   1.000  C
  C390     1.0000 0.23060  0.76940  0.51660  Biso   1.000  C
  C391     1.0000 0.76940  0.76940  0.48340  Biso   1.000  C
  C392     1.0000 0.76940  0.23060  0.51660  Biso   1.000  C
  C393     1.0000 0.48340  0.23060  0.23060  Biso   1.000  C
  C394     1.0000 0.51660  0.23060  0.76940  Biso   1.000  C
  C395     1.0000 0.48340  0.76940  0.76940  Biso   1.000  C
  C396     1.0000 0.51660  0.76940  0.23060  Biso   1.000  C
  C397     1.0000 0.48340  0.23060  0.76940  Biso   1.000  C
  C398     1.0000 0.51660  0.76940  0.76940  Biso   1.000  C
  C399     1.0000 0.48340  0.76940  0.23060  Biso   1.000  C
  C400     1.0000 0.51660  0.23060  0.23060  Biso   1.000  C
  C401     1.0000 0.23060  0.23060  0.51660  Biso   1.000  C
  C402     1.0000 0.76940  0.23060  0.48340  Biso   1.000  C
  C403     1.0000 0.76940  0.76940  0.51660  Biso   1.000  C
  C404     1.0000 0.23060  0.76940  0.48340  Biso   1.000  C
  C405     1.0000 0.23060  0.48340  0.76940  Biso   1.000  C
  C406     1.0000 0.23060  0.51660  0.23060  Biso   1.000  C
  C407     1.0000 0.76940  0.48340  0.23060  Biso   1.000  C
  C408     1.0000 0.76940  0.51660  0.76940  Biso   1.000  C
  C409     1.0000 0.23060  0.98340  0.73060  Biso   1.000  C
  C410     1.0000 0.76940  0.01660  0.73060  Biso   1.000  C
  C411     1.0000 0.76940  0.98340  0.26940  Biso   1.000  C
  C412     1.0000 0.23060  0.01660  0.26940  Biso   1.000  C
  C413     1.0000 0.23060  0.73060  0.98340  Biso   1.000  C
  C414     1.0000 0.23060  0.26940  0.01660  Biso   1.000  C
  C415     1.0000 0.76940  0.26940  0.98340  Biso   1.000  C
  C416     1.0000 0.76940  0.73060  0.01660  Biso   1.000  C
  C417     1.0000 0.48340  0.73060  0.73060  Biso   1.000  C
  C418     1.0000 0.51660  0.73060  0.26940  Biso   1.000  C
  C419     1.0000 0.48340  0.26940  0.26940  Biso   1.000  C
  C420     1.0000 0.51660  0.26940  0.73060  Biso   1.000  C
  C421     1.0000 0.48340  0.73060  0.26940  Biso   1.000  C
  C422     1.0000 0.51660  0.26940  0.26940  Biso   1.000  C
  C423     1.0000 0.48340  0.26940  0.73060  Biso   1.000  C
  C424     1.0000 0.51660  0.73060  0.73060  Biso   1.000  C
  C425     1.0000 0.23060  0.73060  0.01660  Biso   1.000  C
  C426     1.0000 0.76940  0.73060  0.98340  Biso   1.000  C
  C427     1.0000 0.76940  0.26940  0.01660  Biso   1.000  C
  C428     1.0000 0.23060  0.26940  0.98340  Biso   1.000  C
  C429     1.0000 0.23060  0.98340  0.26940  Biso   1.000  C
  C430     1.0000 0.23060  0.01660  0.73060  Biso   1.000  C
  C431     1.0000 0.76940  0.98340  0.73060  Biso   1.000  C
  C432     1.0000 0.76940  0.01660  0.26940  Biso   1.000  C
  C433     1.0000 0.73060  0.48340  0.73060  Biso   1.000  C
  C434     1.0000 0.26940  0.51660  0.73060  Biso   1.000  C
  C435     1.0000 0.26940  0.48340  0.26940  Biso   1.000  C
  C436     1.0000 0.73060  0.51660  0.26940  Biso   1.000  C
  C437     1.0000 0.73060  0.23060  0.98340  Biso   1.000  C
  C438     1.0000 0.73060  0.76940  0.01660  Biso   1.000  C
  C439     1.0000 0.26940  0.76940  0.98340  Biso   1.000  C
  C440     1.0000 0.26940  0.23060  0.01660  Biso   1.000  C
  C441     1.0000 0.98340  0.23060  0.73060  Biso   1.000  C
  C442     1.0000 0.01660  0.23060  0.26940  Biso   1.000  C
  C443     1.0000 0.98340  0.76940  0.26940  Biso   1.000  C
  C444     1.0000 0.01660  0.76940  0.73060  Biso   1.000  C
  C445     1.0000 0.98340  0.23060  0.26940  Biso   1.000  C
  C446     1.0000 0.01660  0.76940  0.26940  Biso   1.000  C
  C447     1.0000 0.98340  0.76940  0.73060  Biso   1.000  C
  C448     1.0000 0.01660  0.23060  0.73060  Biso   1.000  C
  C449     1.0000 0.73060  0.23060  0.01660  Biso   1.000  C
  C450     1.0000 0.26940  0.23060  0.98340  Biso   1.000  C
  C451     1.0000 0.26940  0.76940  0.01660  Biso   1.000  C
  C452     1.0000 0.73060  0.76940  0.98340  Biso   1.000  C
  C453     1.0000 0.73060  0.48340  0.26940  Biso   1.000  C
  C454     1.0000 0.73060  0.51660  0.73060  Biso   1.000  C
  C455     1.0000 0.26940  0.48340  0.73060  Biso   1.000  C
  C456     1.0000 0.26940  0.51660  0.26940  Biso   1.000  C
  C457     1.0000 0.73060  0.98340  0.23060  Biso   1.000  C
  C458     1.0000 0.26940  0.01660  0.23060  Biso   1.000  C
  C459     1.0000 0.26940  0.98340  0.76940  Biso   1.000  C
  C460     1.0000 0.73060  0.01660  0.76940  Biso   1.000  C
  C461     1.0000 0.73060  0.73060  0.48340  Biso   1.000  C
  C462     1.0000 0.73060  0.26940  0.51660  Biso   1.000  C
  C463     1.0000 0.26940  0.26940  0.48340  Biso   1.000  C
  C464     1.0000 0.26940  0.73060  0.51660  Biso   1.000  C
  C465     1.0000 0.98340  0.73060  0.23060  Biso   1.000  C
  C466     1.0000 0.01660  0.73060  0.76940  Biso   1.000  C
  C467     1.0000 0.98340  0.26940  0.76940  Biso   1.000  C
  C468     1.0000 0.01660  0.26940  0.23060  Biso   1.000  C
  C469     1.0000 0.98340  0.73060  0.76940  Biso   1.000  C
  C470     1.0000 0.01660  0.26940  0.76940  Biso   1.000  C
  C471     1.0000 0.98340  0.26940  0.23060  Biso   1.000  C
  C472     1.0000 0.01660  0.73060  0.23060  Biso   1.000  C
  C473     1.0000 0.73060  0.73060  0.51660  Biso   1.000  C
  C474     1.0000 0.26940  0.73060  0.48340  Biso   1.000  C
  C475     1.0000 0.26940  0.26940  0.51660  Biso   1.000  C
  C476     1.0000 0.73060  0.26940  0.48340  Biso   1.000  C
  C477     1.0000 0.73060  0.98340  0.76940  Biso   1.000  C
  C478     1.0000 0.73060  0.01660  0.23060  Biso   1.000  C
  C479     1.0000 0.26940  0.98340  0.23060  Biso   1.000  C
  C480     1.0000 0.26940  0.01660  0.76940  Biso   1.000  C
  C481     1.0000 0.19200  0.50000  0.19200  Biso   1.000  C
  C482     1.0000 0.80800  0.50000  0.19200  Biso   1.000  C
  C483     1.0000 0.80800  0.50000  0.80800  Biso   1.000  C
  C484     1.0000 0.19200  0.50000  0.80800  Biso   1.000  C
  C485     1.0000 0.19200  0.19200  0.50000  Biso   1.000  C
  C486     1.0000 0.19200  0.80800  0.50000  Biso   1.000  C
  C487     1.0000 0.80800  0.80800  0.50000  Biso   1.000  C
  C488     1.0000 0.80800  0.19200  0.50000  Biso   1.000  C
  C489     1.0000 0.50000  0.19200  0.19200  Biso   1.000  C
  C490     1.0000 0.50000  0.19200  0.80800  Biso   1.000  C
  C491     1.0000 0.50000  0.80800  0.80800  Biso   1.000  C
  C492     1.0000 0.50000  0.80800  0.19200  Biso   1.000  C
  C493     1.0000 0.19200  0.00000  0.69200  Biso   1.000  C
  C494     1.0000 0.80800  0.00000  0.69200  Biso   1.000  C
  C495     1.0000 0.80800  0.00000  0.30800  Biso   1.000  C
  C496     1.0000 0.19200  0.00000  0.30800  Biso   1.000  C
  C497     1.0000 0.19200  0.69200  0.00000  Biso   1.000  C
  C498     1.0000 0.19200  0.30800  0.00000  Biso   1.000  C
  C499     1.0000 0.80800  0.30800  0.00000  Biso   1.000  C
  C500     1.0000 0.80800  0.69200  0.00000  Biso   1.000  C
  C501     1.0000 0.50000  0.69200  0.69200  Biso   1.000  C
  C502     1.0000 0.50000  0.69200  0.30800  Biso   1.000  C
  C503     1.0000 0.50000  0.30800  0.30800  Biso   1.000  C
  C504     1.0000 0.50000  0.30800  0.69200  Biso   1.000  C
  C505     1.0000 0.69200  0.50000  0.69200  Biso   1.000  C
  C506     1.0000 0.30800  0.50000  0.69200  Biso   1.000  C
  C507     1.0000 0.30800  0.50000  0.30800  Biso   1.000  C
  C508     1.0000 0.69200  0.50000  0.30800  Biso   1.000  C
  C509     1.0000 0.69200  0.19200  0.00000  Biso   1.000  C
  C510     1.0000 0.69200  0.80800  0.00000  Biso   1.000  C
  C511     1.0000 0.30800  0.80800  0.00000  Biso   1.000  C
  C512     1.0000 0.30800  0.19200  0.00000  Biso   1.000  C
  C513     1.0000 0.00000  0.19200  0.69200  Biso   1.000  C
  C514     1.0000 0.00000  0.19200  0.30800  Biso   1.000  C
  C515     1.0000 0.00000  0.80800  0.30800  Biso   1.000  C
  C516     1.0000 0.00000  0.80800  0.69200  Biso   1.000  C
  C517     1.0000 0.69200  0.00000  0.19200  Biso   1.000  C
  C518     1.0000 0.30800  0.00000  0.19200  Biso   1.000  C
  C519     1.0000 0.30800  0.00000  0.80800  Biso   1.000  C
  C520     1.0000 0.69200  0.00000  0.80800  Biso   1.000  C
  C521     1.0000 0.69200  0.69200  0.50000  Biso   1.000  C
  C522     1.0000 0.69200  0.30800  0.50000  Biso   1.000  C
  C523     1.0000 0.30800  0.30800  0.50000  Biso   1.000  C
  C524     1.0000 0.30800  0.69200  0.50000  Biso   1.000  C
  C525     1.0000 0.00000  0.69200  0.19200  Biso   1.000  C
  C526     1.0000 0.00000  0.69200  0.80800  Biso   1.000  C
  C527     1.0000 0.00000  0.30800  0.80800  Biso   1.000  C
  C528     1.0000 0.00000  0.30800  0.19200  Biso   1.000  C
  H193     1.0000 0.17620  0.50000  0.17620  Biso   1.000  H
  H194     1.0000 0.82380  0.50000  0.17620  Biso   1.000  H
  H195     1.0000 0.82380  0.50000  0.82380  Biso   1.000  H
  H196     1.0000 0.17620  0.50000  0.82380  Biso   1.000  H
  H197     1.0000 0.17620  0.17620  0.50000  Biso   1.000  H
  H198     1.0000 0.17620  0.82380  0.50000  Biso   1.000  H
  H199     1.0000 0.82380  0.82380  0.50000  Biso   1.000  H
  H200     1.0000 0.82380  0.17620  0.50000  Biso   1.000  H
  H201     1.0000 0.50000  0.17620  0.17620  Biso   1.000  H
  H202     1.0000 0.50000  0.17620  0.82380  Biso   1.000  H
  H203     1.0000 0.50000  0.82380  0.82380  Biso   1.000  H
  H204     1.0000 0.50000  0.82380  0.17620  Biso   1.000  H
  H205     1.0000 0.17620  0.00000  0.67620  Biso   1.000  H
  H206     1.0000 0.82380  0.00000  0.67620  Biso   1.000  H
  H207     1.0000 0.82380  0.00000  0.32380  Biso   1.000  H
  H208     1.0000 0.17620  0.00000  0.32380  Biso   1.000  H
  H209     1.0000 0.17620  0.67620  0.00000  Biso   1.000  H
  H210     1.0000 0.17620  0.32380  0.00000  Biso   1.000  H
  H211     1.0000 0.82380  0.32380  0.00000  Biso   1.000  H
  H212     1.0000 0.82380  0.67620  0.00000  Biso   1.000  H
  H213     1.0000 0.50000  0.67620  0.67620  Biso   1.000  H
  H214     1.0000 0.50000  0.67620  0.32380  Biso   1.000  H
  H215     1.0000 0.50000  0.32380  0.32380  Biso   1.000  H
  H216     1.0000 0.50000  0.32380  0.67620  Biso   1.000  H
  H217     1.0000 0.67620  0.50000  0.67620  Biso   1.000  H
  H218     1.0000 0.32380  0.50000  0.67620  Biso   1.000  H
  H219     1.0000 0.32380  0.50000  0.32380  Biso   1.000  H
  H220     1.0000 0.67620  0.50000  0.32380  Biso   1.000  H
  H221     1.0000 0.67620  0.17620  0.00000  Biso   1.000  H
  H222     1.0000 0.67620  0.82380  0.00000  Biso   1.000  H
  H223     1.0000 0.32380  0.82380  0.00000  Biso   1.000  H
  H224     1.0000 0.32380  0.17620  0.00000  Biso   1.000  H
  H225     1.0000 0.00000  0.17620  0.67620  Biso   1.000  H
  H226     1.0000 0.00000  0.17620  0.32380  Biso   1.000  H
  H227     1.0000 0.00000  0.82380  0.32380  Biso   1.000  H
  H228     1.0000 0.00000  0.82380  0.67620  Biso   1.000  H
  H229     1.0000 0.67620  0.00000  0.17620  Biso   1.000  H
  H230     1.0000 0.32380  0.00000  0.17620  Biso   1.000  H
  H231     1.0000 0.32380  0.00000  0.82380  Biso   1.000  H
  H232     1.0000 0.67620  0.00000  0.82380  Biso   1.000  H
  H233     1.0000 0.67620  0.67620  0.50000  Biso   1.000  H
  H234     1.0000 0.67620  0.32380  0.50000  Biso   1.000  H
  H235     1.0000 0.32380  0.32380  0.50000  Biso   1.000  H
  H236     1.0000 0.32380  0.67620  0.50000  Biso   1.000  H
  H237     1.0000 0.00000  0.67620  0.17620  Biso   1.000  H
  H238     1.0000 0.00000  0.67620  0.82380  Biso   1.000  H
  H239     1.0000 0.00000  0.32380  0.82380  Biso   1.000  H
  H240     1.0000 0.00000  0.32380  0.17620  Biso   1.000  H
  C529     1.0000 0.19280  0.44280  0.19280  Biso   1.000  C
  C530     1.0000 0.80720  0.55720  0.19280  Biso   1.000  C
  C531     1.0000 0.80720  0.44280  0.80720  Biso   1.000  C
  C532     1.0000 0.19280  0.55720  0.80720  Biso   1.000  C
  C533     1.0000 0.19280  0.19280  0.44280  Biso   1.000  C
  C534     1.0000 0.19280  0.80720  0.55720  Biso   1.000  C
  C535     1.0000 0.80720  0.80720  0.44280  Biso   1.000  C
  C536     1.0000 0.80720  0.19280  0.55720  Biso   1.000  C
  C537     1.0000 0.44280  0.19280  0.19280  Biso   1.000  C
  C538     1.0000 0.55720  0.19280  0.80720  Biso   1.000  C
  C539     1.0000 0.44280  0.80720  0.80720  Biso   1.000  C
  C540     1.0000 0.55720  0.80720  0.19280  Biso   1.000  C
  C541     1.0000 0.44280  0.19280  0.80720  Biso   1.000  C
  C542     1.0000 0.55720  0.80720  0.80720  Biso   1.000  C
  C543     1.0000 0.44280  0.80720  0.19280  Biso   1.000  C
  C544     1.0000 0.55720  0.19280  0.19280  Biso   1.000  C
  C545     1.0000 0.19280  0.19280  0.55720  Biso   1.000  C
  C546     1.0000 0.80720  0.19280  0.44280  Biso   1.000  C
  C547     1.0000 0.80720  0.80720  0.55720  Biso   1.000  C
  C548     1.0000 0.19280  0.80720  0.44280  Biso   1.000  C
  C549     1.0000 0.19280  0.44280  0.80720  Biso   1.000  C
  C550     1.0000 0.19280  0.55720  0.19280  Biso   1.000  C
  C551     1.0000 0.80720  0.44280  0.19280  Biso   1.000  C
  C552     1.0000 0.80720  0.55720  0.80720  Biso   1.000  C
  C553     1.0000 0.19280  0.94280  0.69280  Biso   1.000  C
  C554     1.0000 0.80720  0.05720  0.69280  Biso   1.000  C
  C555     1.0000 0.80720  0.94280  0.30720  Biso   1.000  C
  C556     1.0000 0.19280  0.05720  0.30720  Biso   1.000  C
  C557     1.0000 0.19280  0.69280  0.94280  Biso   1.000  C
  C558     1.0000 0.19280  0.30720  0.05720  Biso   1.000  C
  C559     1.0000 0.80720  0.30720  0.94280  Biso   1.000  C
  C560     1.0000 0.80720  0.69280  0.05720  Biso   1.000  C
  C561     1.0000 0.44280  0.69280  0.69280  Biso   1.000  C
  C562     1.0000 0.55720  0.69280  0.30720  Biso   1.000  C
  C563     1.0000 0.44280  0.30720  0.30720  Biso   1.000  C
  C564     1.0000 0.55720  0.30720  0.69280  Biso   1.000  C
  C565     1.0000 0.44280  0.69280  0.30720  Biso   1.000  C
  C566     1.0000 0.55720  0.30720  0.30720  Biso   1.000  C
  C567     1.0000 0.44280  0.30720  0.69280  Biso   1.000  C
  C568     1.0000 0.55720  0.69280  0.69280  Biso   1.000  C
  C569     1.0000 0.19280  0.69280  0.05720  Biso   1.000  C
  C570     1.0000 0.80720  0.69280  0.94280  Biso   1.000  C
  C571     1.0000 0.80720  0.30720  0.05720  Biso   1.000  C
  C572     1.0000 0.19280  0.30720  0.94280  Biso   1.000  C
  C573     1.0000 0.19280  0.94280  0.30720  Biso   1.000  C
  C574     1.0000 0.19280  0.05720  0.69280  Biso   1.000  C
  C575     1.0000 0.80720  0.94280  0.69280  Biso   1.000  C
  C576     1.0000 0.80720  0.05720  0.30720  Biso   1.000  C
  C577     1.0000 0.69280  0.44280  0.69280  Biso   1.000  C
  C578     1.0000 0.30720  0.55720  0.69280  Biso   1.000  C
  C579     1.0000 0.30720  0.44280  0.30720  Biso   1.000  C
  C580     1.0000 0.69280  0.55720  0.30720  Biso   1.000  C
  C581     1.0000 0.69280  0.19280  0.94280  Biso   1.000  C
  C582     1.0000 0.69280  0.80720  0.05720  Biso   1.000  C
  C583     1.0000 0.30720  0.80720  0.94280  Biso   1.000  C
  C584     1.0000 0.30720  0.19280  0.05720  Biso   1.000  C
  C585     1.0000 0.94280  0.19280  0.69280  Biso   1.000  C
  C586     1.0000 0.05720  0.19280  0.30720  Biso   1.000  C
  C587     1.0000 0.94280  0.80720  0.30720  Biso   1.000  C
  C588     1.0000 0.05720  0.80720  0.69280  Biso   1.000  C
  C589     1.0000 0.94280  0.19280  0.30720  Biso   1.000  C
  C590     1.0000 0.05720  0.80720  0.30720  Biso   1.000  C
  C591     1.0000 0.94280  0.80720  0.69280  Biso   1.000  C
  C592     1.0000 0.05720  0.19280  0.69280  Biso   1.000  C
  C593     1.0000 0.69280  0.19280  0.05720  Biso   1.000  C
  C594     1.0000 0.30720  0.19280  0.94280  Biso   1.000  C
  C595     1.0000 0.30720  0.80720  0.05720  Biso   1.000  C
  C596     1.0000 0.69280  0.80720  0.94280  Biso   1.000  C
  C597     1.0000 0.69280  0.44280  0.30720  Biso   1.000  C
  C598     1.0000 0.69280  0.55720  0.69280  Biso   1.000  C
  C599     1.0000 0.30720  0.44280  0.69280  Biso   1.000  C
  C600     1.0000 0.30720  0.55720  0.30720  Biso   1.000  C
  C601     1.0000 0.69280  0.94280  0.19280  Biso   1.000  C
  C602     1.0000 0.30720  0.05720  0.19280  Biso   1.000  C
  C603     1.0000 0.30720  0.94280  0.80720  Biso   1.000  C
  C604     1.0000 0.69280  0.05720  0.80720  Biso   1.000  C
  C605     1.0000 0.69280  0.69280  0.44280  Biso   1.000  C
  C606     1.0000 0.69280  0.30720  0.55720  Biso   1.000  C
  C607     1.0000 0.30720  0.30720  0.44280  Biso   1.000  C
  C608     1.0000 0.30720  0.69280  0.55720  Biso   1.000  C
  C609     1.0000 0.94280  0.69280  0.19280  Biso   1.000  C
  C610     1.0000 0.05720  0.69280  0.80720  Biso   1.000  C
  C611     1.0000 0.94280  0.30720  0.80720  Biso   1.000  C
  C612     1.0000 0.05720  0.30720  0.19280  Biso   1.000  C
  C613     1.0000 0.94280  0.69280  0.80720  Biso   1.000  C
  C614     1.0000 0.05720  0.30720  0.80720  Biso   1.000  C
  C615     1.0000 0.94280  0.30720  0.19280  Biso   1.000  C
  C616     1.0000 0.05720  0.69280  0.19280  Biso   1.000  C
  C617     1.0000 0.69280  0.69280  0.55720  Biso   1.000  C
  C618     1.0000 0.30720  0.69280  0.44280  Biso   1.000  C
  C619     1.0000 0.30720  0.30720  0.55720  Biso   1.000  C
  C620     1.0000 0.69280  0.30720  0.44280  Biso   1.000  C
  C621     1.0000 0.69280  0.94280  0.80720  Biso   1.000  C
  C622     1.0000 0.69280  0.05720  0.19280  Biso   1.000  C
  C623     1.0000 0.30720  0.94280  0.19280  Biso   1.000  C
  C624     1.0000 0.30720  0.05720  0.80720  Biso   1.000  C
  H241     1.0000 0.19740  0.44190  0.17090  Biso   1.000  H
  H242     1.0000 0.80260  0.55810  0.17090  Biso   1.000  H
  H243     1.0000 0.80260  0.44190  0.82910  Biso   1.000  H
  H244     1.0000 0.19740  0.55810  0.82910  Biso   1.000  H
  H245     1.0000 0.17090  0.19740  0.44190  Biso   1.000  H
  H246     1.0000 0.17090  0.80260  0.55810  Biso   1.000  H
  H247     1.0000 0.82910  0.80260  0.44190  Biso   1.000  H
  H248     1.0000 0.82910  0.19740  0.55810  Biso   1.000  H
  H249     1.0000 0.44190  0.17090  0.19740  Biso   1.000  H
  H250     1.0000 0.55810  0.17090  0.80260  Biso   1.000  H
  H251     1.0000 0.44190  0.82910  0.80260  Biso   1.000  H
  H252     1.0000 0.55810  0.82910  0.19740  Biso   1.000  H
  H253     1.0000 0.44190  0.19740  0.82910  Biso   1.000  H
  H254     1.0000 0.55810  0.80260  0.82910  Biso   1.000  H
  H255     1.0000 0.44190  0.80260  0.17090  Biso   1.000  H
  H256     1.0000 0.55810  0.19740  0.17090  Biso   1.000  H
  H257     1.0000 0.19740  0.17090  0.55810  Biso   1.000  H
  H258     1.0000 0.80260  0.17090  0.44190  Biso   1.000  H
  H259     1.0000 0.80260  0.82910  0.55810  Biso   1.000  H
  H260     1.0000 0.19740  0.82910  0.44190  Biso   1.000  H
  H261     1.0000 0.17090  0.44190  0.80260  Biso   1.000  H
  H262     1.0000 0.17090  0.55810  0.19740  Biso   1.000  H
  H263     1.0000 0.82910  0.44190  0.19740  Biso   1.000  H
  H264     1.0000 0.82910  0.55810  0.80260  Biso   1.000  H
  H265     1.0000 0.19740  0.94190  0.67090  Biso   1.000  H
  H266     1.0000 0.80260  0.05810  0.67090  Biso   1.000  H
  H267     1.0000 0.80260  0.94190  0.32910  Biso   1.000  H
  H268     1.0000 0.19740  0.05810  0.32910  Biso   1.000  H
  H269     1.0000 0.17090  0.69740  0.94190  Biso   1.000  H
  H270     1.0000 0.17090  0.30260  0.05810  Biso   1.000  H
  H271     1.0000 0.82910  0.30260  0.94190  Biso   1.000  H
  H272     1.0000 0.82910  0.69740  0.05810  Biso   1.000  H
  H273     1.0000 0.44190  0.67090  0.69740  Biso   1.000  H
  H274     1.0000 0.55810  0.67090  0.30260  Biso   1.000  H
  H275     1.0000 0.44190  0.32910  0.30260  Biso   1.000  H
  H276     1.0000 0.55810  0.32910  0.69740  Biso   1.000  H
  H277     1.0000 0.44190  0.69740  0.32910  Biso   1.000  H
  H278     1.0000 0.55810  0.30260  0.32910  Biso   1.000  H
  H279     1.0000 0.44190  0.30260  0.67090  Biso   1.000  H
  H280     1.0000 0.55810  0.69740  0.67090  Biso   1.000  H
  H281     1.0000 0.19740  0.67090  0.05810  Biso   1.000  H
  H282     1.0000 0.80260  0.67090  0.94190  Biso   1.000  H
  H283     1.0000 0.80260  0.32910  0.05810  Biso   1.000  H
  H284     1.0000 0.19740  0.32910  0.94190  Biso   1.000  H
  H285     1.0000 0.17090  0.94190  0.30260  Biso   1.000  H
  H286     1.0000 0.17090  0.05810  0.69740  Biso   1.000  H
  H287     1.0000 0.82910  0.94190  0.69740  Biso   1.000  H
  H288     1.0000 0.82910  0.05810  0.30260  Biso   1.000  H
  H289     1.0000 0.69740  0.44190  0.67090  Biso   1.000  H
  H290     1.0000 0.30260  0.55810  0.67090  Biso   1.000  H
  H291     1.0000 0.30260  0.44190  0.32910  Biso   1.000  H
  H292     1.0000 0.69740  0.55810  0.32910  Biso   1.000  H
  H293     1.0000 0.67090  0.19740  0.94190  Biso   1.000  H
  H294     1.0000 0.67090  0.80260  0.05810  Biso   1.000  H
  H295     1.0000 0.32910  0.80260  0.94190  Biso   1.000  H
  H296     1.0000 0.32910  0.19740  0.05810  Biso   1.000  H
  H297     1.0000 0.94190  0.17090  0.69740  Biso   1.000  H
  H298     1.0000 0.05810  0.17090  0.30260  Biso   1.000  H
  H299     1.0000 0.94190  0.82910  0.30260  Biso   1.000  H
  H300     1.0000 0.05810  0.82910  0.69740  Biso   1.000  H
  H301     1.0000 0.94190  0.19740  0.32910  Biso   1.000  H
  H302     1.0000 0.05810  0.80260  0.32910  Biso   1.000  H
  H303     1.0000 0.94190  0.80260  0.67090  Biso   1.000  H
  H304     1.0000 0.05810  0.19740  0.67090  Biso   1.000  H
  H305     1.0000 0.69740  0.17090  0.05810  Biso   1.000  H
  H306     1.0000 0.30260  0.17090  0.94190  Biso   1.000  H
  H307     1.0000 0.30260  0.82910  0.05810  Biso   1.000  H
  H308     1.0000 0.69740  0.82910  0.94190  Biso   1.000  H
  H309     1.0000 0.67090  0.44190  0.30260  Biso   1.000  H
  H310     1.0000 0.67090  0.55810  0.69740  Biso   1.000  H
  H311     1.0000 0.32910  0.44190  0.69740  Biso   1.000  H
  H312     1.0000 0.32910  0.55810  0.30260  Biso   1.000  H
  H313     1.0000 0.69740  0.94190  0.17090  Biso   1.000  H
  H314     1.0000 0.30260  0.05810  0.17090  Biso   1.000  H
  H315     1.0000 0.30260  0.94190  0.82910  Biso   1.000  H
  H316     1.0000 0.69740  0.05810  0.82910  Biso   1.000  H
  H317     1.0000 0.67090  0.69740  0.44190  Biso   1.000  H
  H318     1.0000 0.67090  0.30260  0.55810  Biso   1.000  H
  H319     1.0000 0.32910  0.30260  0.44190  Biso   1.000  H
  H320     1.0000 0.32910  0.69740  0.55810  Biso   1.000  H
  H321     1.0000 0.94190  0.67090  0.19740  Biso   1.000  H
  H322     1.0000 0.05810  0.67090  0.80260  Biso   1.000  H
  H323     1.0000 0.94190  0.32910  0.80260  Biso   1.000  H
  H324     1.0000 0.05810  0.32910  0.19740  Biso   1.000  H
  H325     1.0000 0.94190  0.69740  0.82910  Biso   1.000  H
  H326     1.0000 0.05810  0.30260  0.82910  Biso   1.000  H
  H327     1.0000 0.94190  0.30260  0.17090  Biso   1.000  H
  H328     1.0000 0.05810  0.69740  0.17090  Biso   1.000  H
  H329     1.0000 0.69740  0.67090  0.55810  Biso   1.000  H
  H330     1.0000 0.30260  0.67090  0.44190  Biso   1.000  H
  H331     1.0000 0.30260  0.32910  0.55810  Biso   1.000  H
  H332     1.0000 0.69740  0.32910  0.44190  Biso   1.000  H
  H333     1.0000 0.67090  0.94190  0.80260  Biso   1.000  H
  H334     1.0000 0.67090  0.05810  0.19740  Biso   1.000  H
  H335     1.0000 0.32910  0.94190  0.19740  Biso   1.000  H
  H336     1.0000 0.32910  0.05810  0.80260  Biso   1.000  H
  H337     1.0000 0.80260  0.55810  0.82910  Biso   1.000  H
  H338     1.0000 0.19740  0.44190  0.82910  Biso   1.000  H
  H339     1.0000 0.19740  0.55810  0.17090  Biso   1.000  H
  H340     1.0000 0.80260  0.44190  0.17090  Biso   1.000  H
  H341     1.0000 0.82910  0.80260  0.55810  Biso   1.000  H
  H342     1.0000 0.82910  0.19740  0.44190  Biso   1.000  H
  H343     1.0000 0.17090  0.19740  0.55810  Biso   1.000  H
  H344     1.0000 0.17090  0.80260  0.44190  Biso   1.000  H
  H345     1.0000 0.55810  0.82910  0.80260  Biso   1.000  H
  H346     1.0000 0.44190  0.82910  0.19740  Biso   1.000  H
  H347     1.0000 0.55810  0.17090  0.19740  Biso   1.000  H
  H348     1.0000 0.44190  0.17090  0.80260  Biso   1.000  H
  H349     1.0000 0.55810  0.80260  0.17090  Biso   1.000  H
  H350     1.0000 0.44190  0.19740  0.17090  Biso   1.000  H
  H351     1.0000 0.55810  0.19740  0.82910  Biso   1.000  H
  H352     1.0000 0.44190  0.80260  0.82910  Biso   1.000  H
  H353     1.0000 0.80260  0.82910  0.44190  Biso   1.000  H
  H354     1.0000 0.19740  0.82910  0.55810  Biso   1.000  H
  H355     1.0000 0.19740  0.17090  0.44190  Biso   1.000  H
  H356     1.0000 0.80260  0.17090  0.55810  Biso   1.000  H
  H357     1.0000 0.82910  0.55810  0.19740  Biso   1.000  H
  H358     1.0000 0.82910  0.44190  0.80260  Biso   1.000  H
  H359     1.0000 0.17090  0.55810  0.80260  Biso   1.000  H
  H360     1.0000 0.17090  0.44190  0.19740  Biso   1.000  H
  H361     1.0000 0.80260  0.05810  0.32910  Biso   1.000  H
  H362     1.0000 0.19740  0.94190  0.32910  Biso   1.000  H
  H363     1.0000 0.19740  0.05810  0.67090  Biso   1.000  H
  H364     1.0000 0.80260  0.94190  0.67090  Biso   1.000  H
  H365     1.0000 0.82910  0.30260  0.05810  Biso   1.000  H
  H366     1.0000 0.82910  0.69740  0.94190  Biso   1.000  H
  H367     1.0000 0.17090  0.69740  0.05810  Biso   1.000  H
  H368     1.0000 0.17090  0.30260  0.94190  Biso   1.000  H
  H369     1.0000 0.55810  0.32910  0.30260  Biso   1.000  H
  H370     1.0000 0.44190  0.32910  0.69740  Biso   1.000  H
  H371     1.0000 0.55810  0.67090  0.69740  Biso   1.000  H
  H372     1.0000 0.44190  0.67090  0.30260  Biso   1.000  H
  H373     1.0000 0.55810  0.30260  0.67090  Biso   1.000  H
  H374     1.0000 0.44190  0.69740  0.67090  Biso   1.000  H
  H375     1.0000 0.55810  0.69740  0.32910  Biso   1.000  H
  H376     1.0000 0.44190  0.30260  0.32910  Biso   1.000  H
  H377     1.0000 0.80260  0.32910  0.94190  Biso   1.000  H
  H378     1.0000 0.19740  0.32910  0.05810  Biso   1.000  H
  H379     1.0000 0.19740  0.67090  0.94190  Biso   1.000  H
  H380     1.0000 0.80260  0.67090  0.05810  Biso   1.000  H
  H381     1.0000 0.82910  0.05810  0.69740  Biso   1.000  H
  H382     1.0000 0.82910  0.94190  0.30260  Biso   1.000  H
  H383     1.0000 0.17090  0.05810  0.30260  Biso   1.000  H
  H384     1.0000 0.17090  0.94190  0.69740  Biso   1.000  H
  H385     1.0000 0.30260  0.55810  0.32910  Biso   1.000  H
  H386     1.0000 0.69740  0.44190  0.32910  Biso   1.000  H
  H387     1.0000 0.69740  0.55810  0.67090  Biso   1.000  H
  H388     1.0000 0.30260  0.44190  0.67090  Biso   1.000  H
  H389     1.0000 0.32910  0.80260  0.05810  Biso   1.000  H
  H390     1.0000 0.32910  0.19740  0.94190  Biso   1.000  H
  H391     1.0000 0.67090  0.19740  0.05810  Biso   1.000  H
  H392     1.0000 0.67090  0.80260  0.94190  Biso   1.000  H
  H393     1.0000 0.05810  0.82910  0.30260  Biso   1.000  H
  H394     1.0000 0.94190  0.82910  0.69740  Biso   1.000  H
  H395     1.0000 0.05810  0.17090  0.69740  Biso   1.000  H
  H396     1.0000 0.94190  0.17090  0.30260  Biso   1.000  H
  H397     1.0000 0.05810  0.80260  0.67090  Biso   1.000  H
  H398     1.0000 0.94190  0.19740  0.67090  Biso   1.000  H
  H399     1.0000 0.05810  0.19740  0.32910  Biso   1.000  H
  H400     1.0000 0.94190  0.80260  0.32910  Biso   1.000  H
  H401     1.0000 0.30260  0.82910  0.94190  Biso   1.000  H
  H402     1.0000 0.69740  0.82910  0.05810  Biso   1.000  H
  H403     1.0000 0.69740  0.17090  0.94190  Biso   1.000  H
  H404     1.0000 0.30260  0.17090  0.05810  Biso   1.000  H
  H405     1.0000 0.32910  0.55810  0.69740  Biso   1.000  H
  H406     1.0000 0.32910  0.44190  0.30260  Biso   1.000  H
  H407     1.0000 0.67090  0.55810  0.30260  Biso   1.000  H
  H408     1.0000 0.67090  0.44190  0.69740  Biso   1.000  H
  H409     1.0000 0.30260  0.05810  0.82910  Biso   1.000  H
  H410     1.0000 0.69740  0.94190  0.82910  Biso   1.000  H
  H411     1.0000 0.69740  0.05810  0.17090  Biso   1.000  H
  H412     1.0000 0.30260  0.94190  0.17090  Biso   1.000  H
  H413     1.0000 0.32910  0.30260  0.55810  Biso   1.000  H
  H414     1.0000 0.32910  0.69740  0.44190  Biso   1.000  H
  H415     1.0000 0.67090  0.69740  0.55810  Biso   1.000  H
  H416     1.0000 0.67090  0.30260  0.44190  Biso   1.000  H
  H417     1.0000 0.05810  0.32910  0.80260  Biso   1.000  H
  H418     1.0000 0.94190  0.32910  0.19740  Biso   1.000  H
  H419     1.0000 0.05810  0.67090  0.19740  Biso   1.000  H
  H420     1.0000 0.94190  0.67090  0.80260  Biso   1.000  H
  H421     1.0000 0.05810  0.30260  0.17090  Biso   1.000  H
  H422     1.0000 0.94190  0.69740  0.17090  Biso   1.000  H
  H423     1.0000 0.05810  0.69740  0.82910  Biso   1.000  H
  H424     1.0000 0.94190  0.30260  0.82910  Biso   1.000  H
  H425     1.0000 0.30260  0.32910  0.44190  Biso   1.000  H
  H426     1.0000 0.69740  0.32910  0.55810  Biso   1.000  H
  H427     1.0000 0.69740  0.67090  0.44190  Biso   1.000  H
  H428     1.0000 0.30260  0.67090  0.55810  Biso   1.000  H
  H429     1.0000 0.32910  0.05810  0.19740  Biso   1.000  H
  H430     1.0000 0.32910  0.94190  0.80260  Biso   1.000  H
  H431     1.0000 0.67090  0.05810  0.80260  Biso   1.000  H
  H432     1.0000 0.67090  0.94190  0.19740  Biso   1.000  H
  H433     1.0000 0.17070  0.44270  0.19590  Biso   1.000  H
  H434     1.0000 0.82930  0.55730  0.19590  Biso   1.000  H
  H435     1.0000 0.82930  0.44270  0.80410  Biso   1.000  H
  H436     1.0000 0.17070  0.55730  0.80410  Biso   1.000  H
  H437     1.0000 0.19590  0.17070  0.44270  Biso   1.000  H
  H438     1.0000 0.19590  0.82930  0.55730  Biso   1.000  H
  H439     1.0000 0.80410  0.82930  0.44270  Biso   1.000  H
  H440     1.0000 0.80410  0.17070  0.55730  Biso   1.000  H
  H441     1.0000 0.44270  0.19590  0.17070  Biso   1.000  H
  H442     1.0000 0.55730  0.19590  0.82930  Biso   1.000  H
  H443     1.0000 0.44270  0.80410  0.82930  Biso   1.000  H
  H444     1.0000 0.55730  0.80410  0.17070  Biso   1.000  H
  H445     1.0000 0.44270  0.17070  0.80410  Biso   1.000  H
  H446     1.0000 0.55730  0.82930  0.80410  Biso   1.000  H
  H447     1.0000 0.44270  0.82930  0.19590  Biso   1.000  H
  H448     1.0000 0.55730  0.17070  0.19590  Biso   1.000  H
  H449     1.0000 0.17070  0.19590  0.55730  Biso   1.000  H
  H450     1.0000 0.82930  0.19590  0.44270  Biso   1.000  H
  H451     1.0000 0.82930  0.80410  0.55730  Biso   1.000  H
  H452     1.0000 0.17070  0.80410  0.44270  Biso   1.000  H
  H453     1.0000 0.19590  0.44270  0.82930  Biso   1.000  H
  H454     1.0000 0.19590  0.55730  0.17070  Biso   1.000  H
  H455     1.0000 0.80410  0.44270  0.17070  Biso   1.000  H
  H456     1.0000 0.80410  0.55730  0.82930  Biso   1.000  H
  H457     1.0000 0.17070  0.94270  0.69590  Biso   1.000  H
  H458     1.0000 0.82930  0.05730  0.69590  Biso   1.000  H
  H459     1.0000 0.82930  0.94270  0.30410  Biso   1.000  H
  H460     1.0000 0.17070  0.05730  0.30410  Biso   1.000  H
  H461     1.0000 0.19590  0.67070  0.94270  Biso   1.000  H
  H462     1.0000 0.19590  0.32930  0.05730  Biso   1.000  H
  H463     1.0000 0.80410  0.32930  0.94270  Biso   1.000  H
  H464     1.0000 0.80410  0.67070  0.05730  Biso   1.000  H
  H465     1.0000 0.44270  0.69590  0.67070  Biso   1.000  H
  H466     1.0000 0.55730  0.69590  0.32930  Biso   1.000  H
  H467     1.0000 0.44270  0.30410  0.32930  Biso   1.000  H
  H468     1.0000 0.55730  0.30410  0.67070  Biso   1.000  H
  H469     1.0000 0.44270  0.67070  0.30410  Biso   1.000  H
  H470     1.0000 0.55730  0.32930  0.30410  Biso   1.000  H
  H471     1.0000 0.44270  0.32930  0.69590  Biso   1.000  H
  H472     1.0000 0.55730  0.67070  0.69590  Biso   1.000  H
  H473     1.0000 0.17070  0.69590  0.05730  Biso   1.000  H
  H474     1.0000 0.82930  0.69590  0.94270  Biso   1.000  H
  H475     1.0000 0.82930  0.30410  0.05730  Biso   1.000  H
  H476     1.0000 0.17070  0.30410  0.94270  Biso   1.000  H
  H477     1.0000 0.19590  0.94270  0.32930  Biso   1.000  H
  H478     1.0000 0.19590  0.05730  0.67070  Biso   1.000  H
  H479     1.0000 0.80410  0.94270  0.67070  Biso   1.000  H
  H480     1.0000 0.80410  0.05730  0.32930  Biso   1.000  H
  H481     1.0000 0.67070  0.44270  0.69590  Biso   1.000  H
  H482     1.0000 0.32930  0.55730  0.69590  Biso   1.000  H
  H483     1.0000 0.32930  0.44270  0.30410  Biso   1.000  H
  H484     1.0000 0.67070  0.55730  0.30410  Biso   1.000  H
  H485     1.0000 0.69590  0.17070  0.94270  Biso   1.000  H
  H486     1.0000 0.69590  0.82930  0.05730  Biso   1.000  H
  H487     1.0000 0.30410  0.82930  0.94270  Biso   1.000  H
  H488     1.0000 0.30410  0.17070  0.05730  Biso   1.000  H
  H489     1.0000 0.94270  0.19590  0.67070  Biso   1.000  H
  H490     1.0000 0.05730  0.19590  0.32930  Biso   1.000  H
  H491     1.0000 0.94270  0.80410  0.32930  Biso   1.000  H
  H492     1.0000 0.05730  0.80410  0.67070  Biso   1.000  H
  H493     1.0000 0.94270  0.17070  0.30410  Biso   1.000  H
  H494     1.0000 0.05730  0.82930  0.30410  Biso   1.000  H
  H495     1.0000 0.94270  0.82930  0.69590  Biso   1.000  H
  H496     1.0000 0.05730  0.17070  0.69590  Biso   1.000  H
  H497     1.0000 0.67070  0.19590  0.05730  Biso   1.000  H
  H498     1.0000 0.32930  0.19590  0.94270  Biso   1.000  H
  H499     1.0000 0.32930  0.80410  0.05730  Biso   1.000  H
  H500     1.0000 0.67070  0.80410  0.94270  Biso   1.000  H
  H501     1.0000 0.69590  0.44270  0.32930  Biso   1.000  H
  H502     1.0000 0.69590  0.55730  0.67070  Biso   1.000  H
  H503     1.0000 0.30410  0.44270  0.67070  Biso   1.000  H
  H504     1.0000 0.30410  0.55730  0.32930  Biso   1.000  H
  H505     1.0000 0.67070  0.94270  0.19590  Biso   1.000  H
  H506     1.0000 0.32930  0.05730  0.19590  Biso   1.000  H
  H507     1.0000 0.32930  0.94270  0.80410  Biso   1.000  H
  H508     1.0000 0.67070  0.05730  0.80410  Biso   1.000  H
  H509     1.0000 0.69590  0.67070  0.44270  Biso   1.000  H
  H510     1.0000 0.69590  0.32930  0.55730  Biso   1.000  H
  H511     1.0000 0.30410  0.32930  0.44270  Biso   1.000  H
  H512     1.0000 0.30410  0.67070  0.55730  Biso   1.000  H
  H513     1.0000 0.94270  0.69590  0.17070  Biso   1.000  H
  H514     1.0000 0.05730  0.69590  0.82930  Biso   1.000  H
  H515     1.0000 0.94270  0.30410  0.82930  Biso   1.000  H
  H516     1.0000 0.05730  0.30410  0.17070  Biso   1.000  H
  H517     1.0000 0.94270  0.67070  0.80410  Biso   1.000  H
  H518     1.0000 0.05730  0.32930  0.80410  Biso   1.000  H
  H519     1.0000 0.94270  0.32930  0.19590  Biso   1.000  H
  H520     1.0000 0.05730  0.67070  0.19590  Biso   1.000  H
  H521     1.0000 0.67070  0.69590  0.55730  Biso   1.000  H
  H522     1.0000 0.32930  0.69590  0.44270  Biso   1.000  H
  H523     1.0000 0.32930  0.30410  0.55730  Biso   1.000  H
  H524     1.0000 0.67070  0.30410  0.44270  Biso   1.000  H
  H525     1.0000 0.69590  0.94270  0.82930  Biso   1.000  H
  H526     1.0000 0.69590  0.05730  0.17070  Biso   1.000  H
  H527     1.0000 0.30410  0.94270  0.17070  Biso   1.000  H
  H528     1.0000 0.30410  0.05730  0.82930  Biso   1.000  H
  H529     1.0000 0.82930  0.55730  0.80410  Biso   1.000  H
  H530     1.0000 0.17070  0.44270  0.80410  Biso   1.000  H
  H531     1.0000 0.17070  0.55730  0.19590  Biso   1.000  H
  H532     1.0000 0.82930  0.44270  0.19590  Biso   1.000  H
  H533     1.0000 0.80410  0.82930  0.55730  Biso   1.000  H
  H534     1.0000 0.80410  0.17070  0.44270  Biso   1.000  H
  H535     1.0000 0.19590  0.17070  0.55730  Biso   1.000  H
  H536     1.0000 0.19590  0.82930  0.44270  Biso   1.000  H
  H537     1.0000 0.55730  0.80410  0.82930  Biso   1.000  H
  H538     1.0000 0.44270  0.80410  0.17070  Biso   1.000  H
  H539     1.0000 0.55730  0.19590  0.17070  Biso   1.000  H
  H540     1.0000 0.44270  0.19590  0.82930  Biso   1.000  H
  H541     1.0000 0.55730  0.82930  0.19590  Biso   1.000  H
  H542     1.0000 0.44270  0.17070  0.19590  Biso   1.000  H
  H543     1.0000 0.55730  0.17070  0.80410  Biso   1.000  H
  H544     1.0000 0.44270  0.82930  0.80410  Biso   1.000  H
  H545     1.0000 0.82930  0.80410  0.44270  Biso   1.000  H
  H546     1.0000 0.17070  0.80410  0.55730  Biso   1.000  H
  H547     1.0000 0.17070  0.19590  0.44270  Biso   1.000  H
  H548     1.0000 0.82930  0.19590  0.55730  Biso   1.000  H
  H549     1.0000 0.80410  0.55730  0.17070  Biso   1.000  H
  H550     1.0000 0.80410  0.44270  0.82930  Biso   1.000  H
  H551     1.0000 0.19590  0.55730  0.82930  Biso   1.000  H
  H552     1.0000 0.19590  0.44270  0.17070  Biso   1.000  H
  H553     1.0000 0.82930  0.05730  0.30410  Biso   1.000  H
  H554     1.0000 0.17070  0.94270  0.30410  Biso   1.000  H
  H555     1.0000 0.17070  0.05730  0.69590  Biso   1.000  H
  H556     1.0000 0.82930  0.94270  0.69590  Biso   1.000  H
  H557     1.0000 0.80410  0.32930  0.05730  Biso   1.000  H
  H558     1.0000 0.80410  0.67070  0.94270  Biso   1.000  H
  H559     1.0000 0.19590  0.67070  0.05730  Biso   1.000  H
  H560     1.0000 0.19590  0.32930  0.94270  Biso   1.000  H
  H561     1.0000 0.55730  0.30410  0.32930  Biso   1.000  H
  H562     1.0000 0.44270  0.30410  0.67070  Biso   1.000  H
  H563     1.0000 0.55730  0.69590  0.67070  Biso   1.000  H
  H564     1.0000 0.44270  0.69590  0.32930  Biso   1.000  H
  H565     1.0000 0.55730  0.32930  0.69590  Biso   1.000  H
  H566     1.0000 0.44270  0.67070  0.69590  Biso   1.000  H
  H567     1.0000 0.55730  0.67070  0.30410  Biso   1.000  H
  H568     1.0000 0.44270  0.32930  0.30410  Biso   1.000  H
  H569     1.0000 0.82930  0.30410  0.94270  Biso   1.000  H
  H570     1.0000 0.17070  0.30410  0.05730  Biso   1.000  H
  H571     1.0000 0.17070  0.69590  0.94270  Biso   1.000  H
  H572     1.0000 0.82930  0.69590  0.05730  Biso   1.000  H
  H573     1.0000 0.80410  0.05730  0.67070  Biso   1.000  H
  H574     1.0000 0.80410  0.94270  0.32930  Biso   1.000  H
  H575     1.0000 0.19590  0.05730  0.32930  Biso   1.000  H
  H576     1.0000 0.19590  0.94270  0.67070  Biso   1.000  H
  H577     1.0000 0.32930  0.55730  0.30410  Biso   1.000  H
  H578     1.0000 0.67070  0.44270  0.30410  Biso   1.000  H
  H579     1.0000 0.67070  0.55730  0.69590  Biso   1.000  H
  H580     1.0000 0.32930  0.44270  0.69590  Biso   1.000  H
  H581     1.0000 0.30410  0.82930  0.05730  Biso   1.000  H
  H582     1.0000 0.30410  0.17070  0.94270  Biso   1.000  H
  H583     1.0000 0.69590  0.17070  0.05730  Biso   1.000  H
  H584     1.0000 0.69590  0.82930  0.94270  Biso   1.000  H
  H585     1.0000 0.05730  0.80410  0.32930  Biso   1.000  H
  H586     1.0000 0.94270  0.80410  0.67070  Biso   1.000  H
  H587     1.0000 0.05730  0.19590  0.67070  Biso   1.000  H
  H588     1.0000 0.94270  0.19590  0.32930  Biso   1.000  H
  H589     1.0000 0.05730  0.82930  0.69590  Biso   1.000  H
  H590     1.0000 0.94270  0.17070  0.69590  Biso   1.000  H
  H591     1.0000 0.05730  0.17070  0.30410  Biso   1.000  H
  H592     1.0000 0.94270  0.82930  0.30410  Biso   1.000  H
  H593     1.0000 0.32930  0.80410  0.94270  Biso   1.000  H
  H594     1.0000 0.67070  0.80410  0.05730  Biso   1.000  H
  H595     1.0000 0.67070  0.19590  0.94270  Biso   1.000  H
  H596     1.0000 0.32930  0.19590  0.05730  Biso   1.000  H
  H597     1.0000 0.30410  0.55730  0.67070  Biso   1.000  H
  H598     1.0000 0.30410  0.44270  0.32930  Biso   1.000  H
  H599     1.0000 0.69590  0.55730  0.32930  Biso   1.000  H
  H600     1.0000 0.69590  0.44270  0.67070  Biso   1.000  H
  H601     1.0000 0.32930  0.05730  0.80410  Biso   1.000  H
  H602     1.0000 0.67070  0.94270  0.80410  Biso   1.000  H
  H603     1.0000 0.67070  0.05730  0.19590  Biso   1.000  H
  H604     1.0000 0.32930  0.94270  0.19590  Biso   1.000  H
  H605     1.0000 0.30410  0.32930  0.55730  Biso   1.000  H
  H606     1.0000 0.30410  0.67070  0.44270  Biso   1.000  H
  H607     1.0000 0.69590  0.67070  0.55730  Biso   1.000  H
  H608     1.0000 0.69590  0.32930  0.44270  Biso   1.000  H
  H609     1.0000 0.05730  0.30410  0.82930  Biso   1.000  H
  H610     1.0000 0.94270  0.30410  0.17070  Biso   1.000  H
  H611     1.0000 0.05730  0.69590  0.17070  Biso   1.000  H
  H612     1.0000 0.94270  0.69590  0.82930  Biso   1.000  H
  H613     1.0000 0.05730  0.32930  0.19590  Biso   1.000  H
  H614     1.0000 0.94270  0.67070  0.19590  Biso   1.000  H
  H615     1.0000 0.05730  0.67070  0.80410  Biso   1.000  H
  H616     1.0000 0.94270  0.32930  0.80410  Biso   1.000  H
  H617     1.0000 0.32930  0.30410  0.44270  Biso   1.000  H
  H618     1.0000 0.67070  0.30410  0.55730  Biso   1.000  H
  H619     1.0000 0.67070  0.69590  0.44270  Biso   1.000  H
  H620     1.0000 0.32930  0.69590  0.55730  Biso   1.000  H
  H621     1.0000 0.30410  0.05730  0.17070  Biso   1.000  H
  H622     1.0000 0.30410  0.94270  0.82930  Biso   1.000  H
  H623     1.0000 0.69590  0.05730  0.82930  Biso   1.000  H
  H624     1.0000 0.69590  0.94270  0.17070  Biso   1.000  H
  H625     1.0000 0.20180  0.42510  0.20300  Biso   1.000  H
  H626     1.0000 0.79820  0.57490  0.20300  Biso   1.000  H
  H627     1.0000 0.79820  0.42510  0.79700  Biso   1.000  H
  H628     1.0000 0.20180  0.57490  0.79700  Biso   1.000  H
  H629     1.0000 0.20300  0.20180  0.42510  Biso   1.000  H
  H630     1.0000 0.20300  0.79820  0.57490  Biso   1.000  H
  H631     1.0000 0.79700  0.79820  0.42510  Biso   1.000  H
  H632     1.0000 0.79700  0.20180  0.57490  Biso   1.000  H
  H633     1.0000 0.42510  0.20300  0.20180  Biso   1.000  H
  H634     1.0000 0.57490  0.20300  0.79820  Biso   1.000  H
  H635     1.0000 0.42510  0.79700  0.79820  Biso   1.000  H
  H636     1.0000 0.57490  0.79700  0.20180  Biso   1.000  H
  H637     1.0000 0.42510  0.20180  0.79700  Biso   1.000  H
  H638     1.0000 0.57490  0.79820  0.79700  Biso   1.000  H
  H639     1.0000 0.42510  0.79820  0.20300  Biso   1.000  H
  H640     1.0000 0.57490  0.20180  0.20300  Biso   1.000  H
  H641     1.0000 0.20180  0.20300  0.57490  Biso   1.000  H
  H642     1.0000 0.79820  0.20300  0.42510  Biso   1.000  H
  H643     1.0000 0.79820  0.79700  0.57490  Biso   1.000  H
  H644     1.0000 0.20180  0.79700  0.42510  Biso   1.000  H
  H645     1.0000 0.20300  0.42510  0.79820  Biso   1.000  H
  H646     1.0000 0.20300  0.57490  0.20180  Biso   1.000  H
  H647     1.0000 0.79700  0.42510  0.20180  Biso   1.000  H
  H648     1.0000 0.79700  0.57490  0.79820  Biso   1.000  H
  H649     1.0000 0.20180  0.92510  0.70300  Biso   1.000  H
  H650     1.0000 0.79820  0.07490  0.70300  Biso   1.000  H
  H651     1.0000 0.79820  0.92510  0.29700  Biso   1.000  H
  H652     1.0000 0.20180  0.07490  0.29700  Biso   1.000  H
  H653     1.0000 0.20300  0.70180  0.92510  Biso   1.000  H
  H654     1.0000 0.20300  0.29820  0.07490  Biso   1.000  H
  H655     1.0000 0.79700  0.29820  0.92510  Biso   1.000  H
  H656     1.0000 0.79700  0.70180  0.07490  Biso   1.000  H
  H657     1.0000 0.42510  0.70300  0.70180  Biso   1.000  H
  H658     1.0000 0.57490  0.70300  0.29820  Biso   1.000  H
  H659     1.0000 0.42510  0.29700  0.29820  Biso   1.000  H
  H660     1.0000 0.57490  0.29700  0.70180  Biso   1.000  H
  H661     1.0000 0.42510  0.70180  0.29700  Biso   1.000  H
  H662     1.0000 0.57490  0.29820  0.29700  Biso   1.000  H
  H663     1.0000 0.42510  0.29820  0.70300  Biso   1.000  H
  H664     1.0000 0.57490  0.70180  0.70300  Biso   1.000  H
  H665     1.0000 0.20180  0.70300  0.07490  Biso   1.000  H
  H666     1.0000 0.79820  0.70300  0.92510  Biso   1.000  H
  H667     1.0000 0.79820  0.29700  0.07490  Biso   1.000  H
  H668     1.0000 0.20180  0.29700  0.92510  Biso   1.000  H
  H669     1.0000 0.20300  0.92510  0.29820  Biso   1.000  H
  H670     1.0000 0.20300  0.07490  0.70180  Biso   1.000  H
  H671     1.0000 0.79700  0.92510  0.70180  Biso   1.000  H
  H672     1.0000 0.79700  0.07490  0.29820  Biso   1.000  H
  H673     1.0000 0.70180  0.42510  0.70300  Biso   1.000  H
  H674     1.0000 0.29820  0.57490  0.70300  Biso   1.000  H
  H675     1.0000 0.29820  0.42510  0.29700  Biso   1.000  H
  H676     1.0000 0.70180  0.57490  0.29700  Biso   1.000  H
  H677     1.0000 0.70300  0.20180  0.92510  Biso   1.000  H
  H678     1.0000 0.70300  0.79820  0.07490  Biso   1.000  H
  H679     1.0000 0.29700  0.79820  0.92510  Biso   1.000  H
  H680     1.0000 0.29700  0.20180  0.07490  Biso   1.000  H
  H681     1.0000 0.92510  0.20300  0.70180  Biso   1.000  H
  H682     1.0000 0.07490  0.20300  0.29820  Biso   1.000  H
  H683     1.0000 0.92510  0.79700  0.29820  Biso   1.000  H
  H684     1.0000 0.07490  0.79700  0.70180  Biso   1.000  H
  H685     1.0000 0.92510  0.20180  0.29700  Biso   1.000  H
  H686     1.0000 0.07490  0.79820  0.29700  Biso   1.000  H
  H687     1.0000 0.92510  0.79820  0.70300  Biso   1.000  H
  H688     1.0000 0.07490  0.20180  0.70300  Biso   1.000  H
  H689     1.0000 0.70180  0.20300  0.07490  Biso   1.000  H
  H690     1.0000 0.29820  0.20300  0.92510  Biso   1.000  H
  H691     1.0000 0.29820  0.79700  0.07490  Biso   1.000  H
  H692     1.0000 0.70180  0.79700  0.92510  Biso   1.000  H
  H693     1.0000 0.70300  0.42510  0.29820  Biso   1.000  H
  H694     1.0000 0.70300  0.57490  0.70180  Biso   1.000  H
  H695     1.0000 0.29700  0.42510  0.70180  Biso   1.000  H
  H696     1.0000 0.29700  0.57490  0.29820  Biso   1.000  H
  H697     1.0000 0.70180  0.92510  0.20300  Biso   1.000  H
  H698     1.0000 0.29820  0.07490  0.20300  Biso   1.000  H
  H699     1.0000 0.29820  0.92510  0.79700  Biso   1.000  H
  H700     1.0000 0.70180  0.07490  0.79700  Biso   1.000  H
  H701     1.0000 0.70300  0.70180  0.42510  Biso   1.000  H
  H702     1.0000 0.70300  0.29820  0.57490  Biso   1.000  H
  H703     1.0000 0.29700  0.29820  0.42510  Biso   1.000  H
  H704     1.0000 0.29700  0.70180  0.57490  Biso   1.000  H
  H705     1.0000 0.92510  0.70300  0.20180  Biso   1.000  H
  H706     1.0000 0.07490  0.70300  0.79820  Biso   1.000  H
  H707     1.0000 0.92510  0.29700  0.79820  Biso   1.000  H
  H708     1.0000 0.07490  0.29700  0.20180  Biso   1.000  H
  H709     1.0000 0.92510  0.70180  0.79700  Biso   1.000  H
  H710     1.0000 0.07490  0.29820  0.79700  Biso   1.000  H
  H711     1.0000 0.92510  0.29820  0.20300  Biso   1.000  H
  H712     1.0000 0.07490  0.70180  0.20300  Biso   1.000  H
  H713     1.0000 0.70180  0.70300  0.57490  Biso   1.000  H
  H714     1.0000 0.29820  0.70300  0.42510  Biso   1.000  H
  H715     1.0000 0.29820  0.29700  0.57490  Biso   1.000  H
  H716     1.0000 0.70180  0.29700  0.42510  Biso   1.000  H
  H717     1.0000 0.70300  0.92510  0.79820  Biso   1.000  H
  H718     1.0000 0.70300  0.07490  0.20180  Biso   1.000  H
  H719     1.0000 0.29700  0.92510  0.20180  Biso   1.000  H
  H720     1.0000 0.29700  0.07490  0.79820  Biso   1.000  H
  H721     1.0000 0.79820  0.57490  0.79700  Biso   1.000  H
  H722     1.0000 0.20180  0.42510  0.79700  Biso   1.000  H
  H723     1.0000 0.20180  0.57490  0.20300  Biso   1.000  H
  H724     1.0000 0.79820  0.42510  0.20300  Biso   1.000  H
  H725     1.0000 0.79700  0.79820  0.57490  Biso   1.000  H
  H726     1.0000 0.79700  0.20180  0.42510  Biso   1.000  H
  H727     1.0000 0.20300  0.20180  0.57490  Biso   1.000  H
  H728     1.0000 0.20300  0.79820  0.42510  Biso   1.000  H
  H729     1.0000 0.57490  0.79700  0.79820  Biso   1.000  H
  H730     1.0000 0.42510  0.79700  0.20180  Biso   1.000  H
  H731     1.0000 0.57490  0.20300  0.20180  Biso   1.000  H
  H732     1.0000 0.42510  0.20300  0.79820  Biso   1.000  H
  H733     1.0000 0.57490  0.79820  0.20300  Biso   1.000  H
  H734     1.0000 0.42510  0.20180  0.20300  Biso   1.000  H
  H735     1.0000 0.57490  0.20180  0.79700  Biso   1.000  H
  H736     1.0000 0.42510  0.79820  0.79700  Biso   1.000  H
  H737     1.0000 0.79820  0.79700  0.42510  Biso   1.000  H
  H738     1.0000 0.20180  0.79700  0.57490  Biso   1.000  H
  H739     1.0000 0.20180  0.20300  0.42510  Biso   1.000  H
  H740     1.0000 0.79820  0.20300  0.57490  Biso   1.000  H
  H741     1.0000 0.79700  0.57490  0.20180  Biso   1.000  H
  H742     1.0000 0.79700  0.42510  0.79820  Biso   1.000  H
  H743     1.0000 0.20300  0.57490  0.79820  Biso   1.000  H
  H744     1.0000 0.20300  0.42510  0.20180  Biso   1.000  H
  H745     1.0000 0.79820  0.07490  0.29700  Biso   1.000  H
  H746     1.0000 0.20180  0.92510  0.29700  Biso   1.000  H
  H747     1.0000 0.20180  0.07490  0.70300  Biso   1.000  H
  H748     1.0000 0.79820  0.92510  0.70300  Biso   1.000  H
  H749     1.0000 0.79700  0.29820  0.07490  Biso   1.000  H
  H750     1.0000 0.79700  0.70180  0.92510  Biso   1.000  H
  H751     1.0000 0.20300  0.70180  0.07490  Biso   1.000  H
  H752     1.0000 0.20300  0.29820  0.92510  Biso   1.000  H
  H753     1.0000 0.57490  0.29700  0.29820  Biso   1.000  H
  H754     1.0000 0.42510  0.29700  0.70180  Biso   1.000  H
  H755     1.0000 0.57490  0.70300  0.70180  Biso   1.000  H
  H756     1.0000 0.42510  0.70300  0.29820  Biso   1.000  H
  H757     1.0000 0.57490  0.29820  0.70300  Biso   1.000  H
  H758     1.0000 0.42510  0.70180  0.70300  Biso   1.000  H
  H759     1.0000 0.57490  0.70180  0.29700  Biso   1.000  H
  H760     1.0000 0.42510  0.29820  0.29700  Biso   1.000  H
  H761     1.0000 0.79820  0.29700  0.92510  Biso   1.000  H
  H762     1.0000 0.20180  0.29700  0.07490  Biso   1.000  H
  H763     1.0000 0.20180  0.70300  0.92510  Biso   1.000  H
  H764     1.0000 0.79820  0.70300  0.07490  Biso   1.000  H
  H765     1.0000 0.79700  0.07490  0.70180  Biso   1.000  H
  H766     1.0000 0.79700  0.92510  0.29820  Biso   1.000  H
  H767     1.0000 0.20300  0.07490  0.29820  Biso   1.000  H
  H768     1.0000 0.20300  0.92510  0.70180  Biso   1.000  H
  H769     1.0000 0.29820  0.57490  0.29700  Biso   1.000  H
  H770     1.0000 0.70180  0.42510  0.29700  Biso   1.000  H
  H771     1.0000 0.70180  0.57490  0.70300  Biso   1.000  H
  H772     1.0000 0.29820  0.42510  0.70300  Biso   1.000  H
  H773     1.0000 0.29700  0.79820  0.07490  Biso   1.000  H
  H774     1.0000 0.29700  0.20180  0.92510  Biso   1.000  H
  H775     1.0000 0.70300  0.20180  0.07490  Biso   1.000  H
  H776     1.0000 0.70300  0.79820  0.92510  Biso   1.000  H
  H777     1.0000 0.07490  0.79700  0.29820  Biso   1.000  H
  H778     1.0000 0.92510  0.79700  0.70180  Biso   1.000  H
  H779     1.0000 0.07490  0.20300  0.70180  Biso   1.000  H
  H780     1.0000 0.92510  0.20300  0.29820  Biso   1.000  H
  H781     1.0000 0.07490  0.79820  0.70300  Biso   1.000  H
  H782     1.0000 0.92510  0.20180  0.70300  Biso   1.000  H
  H783     1.0000 0.07490  0.20180  0.29700  Biso   1.000  H
  H784     1.0000 0.92510  0.79820  0.29700  Biso   1.000  H
  H785     1.0000 0.29820  0.79700  0.92510  Biso   1.000  H
  H786     1.0000 0.70180  0.79700  0.07490  Biso   1.000  H
  H787     1.0000 0.70180  0.20300  0.92510  Biso   1.000  H
  H788     1.0000 0.29820  0.20300  0.07490  Biso   1.000  H
  H789     1.0000 0.29700  0.57490  0.70180  Biso   1.000  H
  H790     1.0000 0.29700  0.42510  0.29820  Biso   1.000  H
  H791     1.0000 0.70300  0.57490  0.29820  Biso   1.000  H
  H792     1.0000 0.70300  0.42510  0.70180  Biso   1.000  H
  H793     1.0000 0.29820  0.07490  0.79700  Biso   1.000  H
  H794     1.0000 0.70180  0.92510  0.79700  Biso   1.000  H
  H795     1.0000 0.70180  0.07490  0.20300  Biso   1.000  H
  H796     1.0000 0.29820  0.92510  0.20300  Biso   1.000  H
  H797     1.0000 0.29700  0.29820  0.57490  Biso   1.000  H
  H798     1.0000 0.29700  0.70180  0.42510  Biso   1.000  H
  H799     1.0000 0.70300  0.70180  0.57490  Biso   1.000  H
  H800     1.0000 0.70300  0.29820  0.42510  Biso   1.000  H
  H801     1.0000 0.07490  0.29700  0.79820  Biso   1.000  H
  H802     1.0000 0.92510  0.29700  0.20180  Biso   1.000  H
  H803     1.0000 0.07490  0.70300  0.20180  Biso   1.000  H
  H804     1.0000 0.92510  0.70300  0.79820  Biso   1.000  H
  H805     1.0000 0.07490  0.29820  0.20300  Biso   1.000  H
  H806     1.0000 0.92510  0.70180  0.20300  Biso   1.000  H
  H807     1.0000 0.07490  0.70180  0.79700  Biso   1.000  H
  H808     1.0000 0.92510  0.29820  0.79700  Biso   1.000  H
  H809     1.0000 0.29820  0.29700  0.42510  Biso   1.000  H
  H810     1.0000 0.70180  0.29700  0.57490  Biso   1.000  H
  H811     1.0000 0.70180  0.70300  0.42510  Biso   1.000  H
  H812     1.0000 0.29820  0.70300  0.57490  Biso   1.000  H
  H813     1.0000 0.29700  0.07490  0.20180  Biso   1.000  H
  H814     1.0000 0.29700  0.92510  0.79820  Biso   1.000  H
  H815     1.0000 0.70300  0.07490  0.79820  Biso   1.000  H
  H816     1.0000 0.70300  0.92510  0.20180  Biso   1.000  H
  N1       1.0000 0.20650  0.47300  0.20650  Biso   1.000  N
  N2       1.0000 0.79350  0.52700  0.20650  Biso   1.000  N
  N3       1.0000 0.79350  0.47300  0.79350  Biso   1.000  N
  N4       1.0000 0.20650  0.52700  0.79350  Biso   1.000  N
  N5       1.0000 0.20650  0.20650  0.47300  Biso   1.000  N
  N6       1.0000 0.20650  0.79350  0.52700  Biso   1.000  N
  N7       1.0000 0.79350  0.79350  0.47300  Biso   1.000  N
  N8       1.0000 0.79350  0.20650  0.52700  Biso   1.000  N
  N9       1.0000 0.47300  0.20650  0.20650  Biso   1.000  N
  N10      1.0000 0.52700  0.20650  0.79350  Biso   1.000  N
  N11      1.0000 0.47300  0.79350  0.79350  Biso   1.000  N
  N12      1.0000 0.52700  0.79350  0.20650  Biso   1.000  N
  N13      1.0000 0.47300  0.20650  0.79350  Biso   1.000  N
  N14      1.0000 0.52700  0.79350  0.79350  Biso   1.000  N
  N15      1.0000 0.47300  0.79350  0.20650  Biso   1.000  N
  N16      1.0000 0.52700  0.20650  0.20650  Biso   1.000  N
  N17      1.0000 0.20650  0.20650  0.52700  Biso   1.000  N
  N18      1.0000 0.79350  0.20650  0.47300  Biso   1.000  N
  N19      1.0000 0.79350  0.79350  0.52700  Biso   1.000  N
  N20      1.0000 0.20650  0.79350  0.47300  Biso   1.000  N
  N21      1.0000 0.20650  0.47300  0.79350  Biso   1.000  N
  N22      1.0000 0.20650  0.52700  0.20650  Biso   1.000  N
  N23      1.0000 0.79350  0.47300  0.20650  Biso   1.000  N
  N24      1.0000 0.79350  0.52700  0.79350  Biso   1.000  N
  N25      1.0000 0.20650  0.97300  0.70650  Biso   1.000  N
  N26      1.0000 0.79350  0.02700  0.70650  Biso   1.000  N
  N27      1.0000 0.79350  0.97300  0.29350  Biso   1.000  N
  N28      1.0000 0.20650  0.02700  0.29350  Biso   1.000  N
  N29      1.0000 0.20650  0.70650  0.97300  Biso   1.000  N
  N30      1.0000 0.20650  0.29350  0.02700  Biso   1.000  N
  N31      1.0000 0.79350  0.29350  0.97300  Biso   1.000  N
  N32      1.0000 0.79350  0.70650  0.02700  Biso   1.000  N
  N33      1.0000 0.47300  0.70650  0.70650  Biso   1.000  N
  N34      1.0000 0.52700  0.70650  0.29350  Biso   1.000  N
  N35      1.0000 0.47300  0.29350  0.29350  Biso   1.000  N
  N36      1.0000 0.52700  0.29350  0.70650  Biso   1.000  N
  N37      1.0000 0.47300  0.70650  0.29350  Biso   1.000  N
  N38      1.0000 0.52700  0.29350  0.29350  Biso   1.000  N
  N39      1.0000 0.47300  0.29350  0.70650  Biso   1.000  N
  N40      1.0000 0.52700  0.70650  0.70650  Biso   1.000  N
  N41      1.0000 0.20650  0.70650  0.02700  Biso   1.000  N
  N42      1.0000 0.79350  0.70650  0.97300  Biso   1.000  N
  N43      1.0000 0.79350  0.29350  0.02700  Biso   1.000  N
  N44      1.0000 0.20650  0.29350  0.97300  Biso   1.000  N
  N45      1.0000 0.20650  0.97300  0.29350  Biso   1.000  N
  N46      1.0000 0.20650  0.02700  0.70650  Biso   1.000  N
  N47      1.0000 0.79350  0.97300  0.70650  Biso   1.000  N
  N48      1.0000 0.79350  0.02700  0.29350  Biso   1.000  N
  N49      1.0000 0.70650  0.47300  0.70650  Biso   1.000  N
  N50      1.0000 0.29350  0.52700  0.70650  Biso   1.000  N
  N51      1.0000 0.29350  0.47300  0.29350  Biso   1.000  N
  N52      1.0000 0.70650  0.52700  0.29350  Biso   1.000  N
  N53      1.0000 0.70650  0.20650  0.97300  Biso   1.000  N
  N54      1.0000 0.70650  0.79350  0.02700  Biso   1.000  N
  N55      1.0000 0.29350  0.79350  0.97300  Biso   1.000  N
  N56      1.0000 0.29350  0.20650  0.02700  Biso   1.000  N
  N57      1.0000 0.97300  0.20650  0.70650  Biso   1.000  N
  N58      1.0000 0.02700  0.20650  0.29350  Biso   1.000  N
  N59      1.0000 0.97300  0.79350  0.29350  Biso   1.000  N
  N60      1.0000 0.02700  0.79350  0.70650  Biso   1.000  N
  N61      1.0000 0.97300  0.20650  0.29350  Biso   1.000  N
  N62      1.0000 0.02700  0.79350  0.29350  Biso   1.000  N
  N63      1.0000 0.97300  0.79350  0.70650  Biso   1.000  N
  N64      1.0000 0.02700  0.20650  0.70650  Biso   1.000  N
  N65      1.0000 0.70650  0.20650  0.02700  Biso   1.000  N
  N66      1.0000 0.29350  0.20650  0.97300  Biso   1.000  N
  N67      1.0000 0.29350  0.79350  0.02700  Biso   1.000  N
  N68      1.0000 0.70650  0.79350  0.97300  Biso   1.000  N
  N69      1.0000 0.70650  0.47300  0.29350  Biso   1.000  N
  N70      1.0000 0.70650  0.52700  0.70650  Biso   1.000  N
  N71      1.0000 0.29350  0.47300  0.70650  Biso   1.000  N
  N72      1.0000 0.29350  0.52700  0.29350  Biso   1.000  N
  N73      1.0000 0.70650  0.97300  0.20650  Biso   1.000  N
  N74      1.0000 0.29350  0.02700  0.20650  Biso   1.000  N
  N75      1.0000 0.29350  0.97300  0.79350  Biso   1.000  N
  N76      1.0000 0.70650  0.02700  0.79350  Biso   1.000  N
  N77      1.0000 0.70650  0.70650  0.47300  Biso   1.000  N
  N78      1.0000 0.70650  0.29350  0.52700  Biso   1.000  N
  N79      1.0000 0.29350  0.29350  0.47300  Biso   1.000  N
  N80      1.0000 0.29350  0.70650  0.52700  Biso   1.000  N
  N81      1.0000 0.97300  0.70650  0.20650  Biso   1.000  N
  N82      1.0000 0.02700  0.70650  0.79350  Biso   1.000  N
  N83      1.0000 0.97300  0.29350  0.79350  Biso   1.000  N
  N84      1.0000 0.02700  0.29350  0.20650  Biso   1.000  N
  N85      1.0000 0.97300  0.70650  0.79350  Biso   1.000  N
  N86      1.0000 0.02700  0.29350  0.79350  Biso   1.000  N
  N87      1.0000 0.97300  0.29350  0.20650  Biso   1.000  N
  N88      1.0000 0.02700  0.70650  0.20650  Biso   1.000  N
  N89      1.0000 0.70650  0.70650  0.52700  Biso   1.000  N
  N90      1.0000 0.29350  0.70650  0.47300  Biso   1.000  N
  N91      1.0000 0.29350  0.29350  0.52700  Biso   1.000  N
  N92      1.0000 0.70650  0.29350  0.47300  Biso   1.000  N
  N93      1.0000 0.70650  0.97300  0.79350  Biso   1.000  N
  N94      1.0000 0.70650  0.02700  0.20650  Biso   1.000  N
  N95      1.0000 0.29350  0.97300  0.20650  Biso   1.000  N
  N96      1.0000 0.29350  0.02700  0.79350  Biso   1.000  N
  O1       1.0000 0.25000  0.25000  0.25000  Biso   1.000  O
  O2       1.0000 0.75000  0.75000  0.25000  Biso   1.000  O
  O3       1.0000 0.75000  0.25000  0.75000  Biso   1.000  O
  O4       1.0000 0.25000  0.75000  0.75000  Biso   1.000  O
  O5       1.0000 0.25000  0.25000  0.75000  Biso   1.000  O
  O6       1.0000 0.75000  0.75000  0.75000  Biso   1.000  O
  O7       1.0000 0.25000  0.75000  0.25000  Biso   1.000  O
  O8       1.0000 0.75000  0.25000  0.25000  Biso   1.000  O
  O9       1.0000 0.26910  0.31920  0.23090  Biso   1.000  O
  O10      1.0000 0.73090  0.68080  0.23090  Biso   1.000  O
  O11      1.0000 0.73090  0.31920  0.76910  Biso   1.000  O
  O12      1.0000 0.26910  0.68080  0.76910  Biso   1.000  O
  O13      1.0000 0.23090  0.26910  0.31920  Biso   1.000  O
  O14      1.0000 0.23090  0.73090  0.68080  Biso   1.000  O
  O15      1.0000 0.76910  0.73090  0.31920  Biso   1.000  O
  O16      1.0000 0.76910  0.26910  0.68080  Biso   1.000  O
  O17      1.0000 0.31920  0.23090  0.26910  Biso   1.000  O
  O18      1.0000 0.68080  0.23090  0.73090  Biso   1.000  O
  O19      1.0000 0.31920  0.76910  0.73090  Biso   1.000  O
  O20      1.0000 0.68080  0.76910  0.26910  Biso   1.000  O
  O21      1.0000 0.31920  0.26910  0.76910  Biso   1.000  O
  O22      1.0000 0.68080  0.73090  0.76910  Biso   1.000  O
  O23      1.0000 0.31920  0.73090  0.23090  Biso   1.000  O
  O24      1.0000 0.68080  0.26910  0.23090  Biso   1.000  O
  O25      1.0000 0.26910  0.23090  0.68080  Biso   1.000  O
  O26      1.0000 0.73090  0.23090  0.31920  Biso   1.000  O
  O27      1.0000 0.73090  0.76910  0.68080  Biso   1.000  O
  O28      1.0000 0.26910  0.76910  0.31920  Biso   1.000  O
  O29      1.0000 0.23090  0.31920  0.73090  Biso   1.000  O
  O30      1.0000 0.23090  0.68080  0.26910  Biso   1.000  O
  O31      1.0000 0.76910  0.31920  0.26910  Biso   1.000  O
  O32      1.0000 0.76910  0.68080  0.73090  Biso   1.000  O
  O33      1.0000 0.26910  0.81920  0.73090  Biso   1.000  O
  O34      1.0000 0.73090  0.18080  0.73090  Biso   1.000  O
  O35      1.0000 0.73090  0.81920  0.26910  Biso   1.000  O
  O36      1.0000 0.26910  0.18080  0.26910  Biso   1.000  O
  O37      1.0000 0.23090  0.76910  0.81920  Biso   1.000  O
  O38      1.0000 0.23090  0.23090  0.18080  Biso   1.000  O
  O39      1.0000 0.76910  0.23090  0.81920  Biso   1.000  O
  O40      1.0000 0.76910  0.76910  0.18080  Biso   1.000  O
  O41      1.0000 0.31920  0.73090  0.76910  Biso   1.000  O
  O42      1.0000 0.68080  0.73090  0.23090  Biso   1.000  O
  O43      1.0000 0.31920  0.26910  0.23090  Biso   1.000  O
  O44      1.0000 0.68080  0.26910  0.76910  Biso   1.000  O
  O45      1.0000 0.31920  0.76910  0.26910  Biso   1.000  O
  O46      1.0000 0.68080  0.23090  0.26910  Biso   1.000  O
  O47      1.0000 0.31920  0.23090  0.73090  Biso   1.000  O
  O48      1.0000 0.68080  0.76910  0.73090  Biso   1.000  O
  O49      1.0000 0.26910  0.73090  0.18080  Biso   1.000  O
  O50      1.0000 0.73090  0.73090  0.81920  Biso   1.000  O
  O51      1.0000 0.73090  0.26910  0.18080  Biso   1.000  O
  O52      1.0000 0.26910  0.26910  0.81920  Biso   1.000  O
  O53      1.0000 0.23090  0.81920  0.23090  Biso   1.000  O
  O54      1.0000 0.23090  0.18080  0.76910  Biso   1.000  O
  O55      1.0000 0.76910  0.81920  0.76910  Biso   1.000  O
  O56      1.0000 0.76910  0.18080  0.23090  Biso   1.000  O
  O57      1.0000 0.76910  0.31920  0.73090  Biso   1.000  O
  O58      1.0000 0.23090  0.68080  0.73090  Biso   1.000  O
  O59      1.0000 0.23090  0.31920  0.26910  Biso   1.000  O
  O60      1.0000 0.76910  0.68080  0.26910  Biso   1.000  O
  O61      1.0000 0.73090  0.26910  0.81920  Biso   1.000  O
  O62      1.0000 0.73090  0.73090  0.18080  Biso   1.000  O
  O63      1.0000 0.26910  0.73090  0.81920  Biso   1.000  O
  O64      1.0000 0.26910  0.26910  0.18080  Biso   1.000  O
  O65      1.0000 0.81920  0.23090  0.76910  Biso   1.000  O
  O66      1.0000 0.18080  0.23090  0.23090  Biso   1.000  O
  O67      1.0000 0.81920  0.76910  0.23090  Biso   1.000  O
  O68      1.0000 0.18080  0.76910  0.76910  Biso   1.000  O
  O69      1.0000 0.81920  0.26910  0.26910  Biso   1.000  O
  O70      1.0000 0.18080  0.73090  0.26910  Biso   1.000  O
  O71      1.0000 0.81920  0.73090  0.73090  Biso   1.000  O
  O72      1.0000 0.18080  0.26910  0.73090  Biso   1.000  O
  O73      1.0000 0.76910  0.23090  0.18080  Biso   1.000  O
  O74      1.0000 0.23090  0.23090  0.81920  Biso   1.000  O
  O75      1.0000 0.23090  0.76910  0.18080  Biso   1.000  O
  O76      1.0000 0.76910  0.76910  0.81920  Biso   1.000  O
  O77      1.0000 0.73090  0.31920  0.23090  Biso   1.000  O
  O78      1.0000 0.73090  0.68080  0.76910  Biso   1.000  O
  O79      1.0000 0.26910  0.31920  0.76910  Biso   1.000  O
  O80      1.0000 0.26910  0.68080  0.23090  Biso   1.000  O
  O81      1.0000 0.76910  0.81920  0.23090  Biso   1.000  O
  O82      1.0000 0.23090  0.18080  0.23090  Biso   1.000  O
  O83      1.0000 0.23090  0.81920  0.76910  Biso   1.000  O
  O84      1.0000 0.76910  0.18080  0.76910  Biso   1.000  O
  O85      1.0000 0.73090  0.76910  0.31920  Biso   1.000  O
  O86      1.0000 0.73090  0.23090  0.68080  Biso   1.000  O
  O87      1.0000 0.26910  0.23090  0.31920  Biso   1.000  O
  O88      1.0000 0.26910  0.76910  0.68080  Biso   1.000  O
  O89      1.0000 0.81920  0.73090  0.26910  Biso   1.000  O
  O90      1.0000 0.18080  0.73090  0.73090  Biso   1.000  O
  O91      1.0000 0.81920  0.26910  0.73090  Biso   1.000  O
  O92      1.0000 0.18080  0.26910  0.26910  Biso   1.000  O
  O93      1.0000 0.81920  0.76910  0.76910  Biso   1.000  O
  O94      1.0000 0.18080  0.23090  0.76910  Biso   1.000  O
  O95      1.0000 0.81920  0.23090  0.23090  Biso   1.000  O
  O96      1.0000 0.18080  0.76910  0.23090  Biso   1.000  O
  O97      1.0000 0.76910  0.73090  0.68080  Biso   1.000  O
  O98      1.0000 0.23090  0.73090  0.31920  Biso   1.000  O
  O99      1.0000 0.23090  0.26910  0.68080  Biso   1.000  O
  O100     1.0000 0.76910  0.26910  0.31920  Biso   1.000  O
  O101     1.0000 0.73090  0.81920  0.73090  Biso   1.000  O
  O102     1.0000 0.73090  0.18080  0.26910  Biso   1.000  O
  O103     1.0000 0.26910  0.81920  0.26910  Biso   1.000  O
  O104     1.0000 0.26910  0.18080  0.73090  Biso   1.000  O
  Zn1      1.0000 0.27617  0.27617  0.22383  Biso   1.000  Zn
  Zn2      1.0000 0.72383  0.72383  0.22383  Biso   1.000  Zn
  Zn3      1.0000 0.72383  0.27617  0.77617  Biso   1.000  Zn
  Zn4      1.0000 0.27617  0.72383  0.77617  Biso   1.000  Zn
  Zn5      1.0000 0.22383  0.27617  0.27617  Biso   1.000  Zn
  Zn6      1.0000 0.22383  0.72383  0.72383  Biso   1.000  Zn
  Zn7      1.0000 0.77617  0.72383  0.27617  Biso   1.000  Zn
  Zn8      1.0000 0.77617  0.27617  0.72383  Biso   1.000  Zn
  Zn9      1.0000 0.27617  0.22383  0.27617  Biso   1.000  Zn
  Zn10     1.0000 0.72383  0.22383  0.72383  Biso   1.000  Zn
  Zn11     1.0000 0.27617  0.77617  0.72383  Biso   1.000  Zn
  Zn12     1.0000 0.72383  0.77617  0.27617  Biso   1.000  Zn
  Zn13     1.0000 0.27617  0.27617  0.77617  Biso   1.000  Zn
  Zn14     1.0000 0.72383  0.72383  0.77617  Biso   1.000  Zn
  Zn15     1.0000 0.27617  0.72383  0.22383  Biso   1.000  Zn
  Zn16     1.0000 0.72383  0.27617  0.22383  Biso   1.000  Zn
  Zn17     1.0000 0.27617  0.22383  0.72383  Biso   1.000  Zn
  Zn18     1.0000 0.72383  0.22383  0.27617  Biso   1.000  Zn
  Zn19     1.0000 0.72383  0.77617  0.72383  Biso   1.000  Zn
  Zn20     1.0000 0.27617  0.77617  0.27617  Biso   1.000  Zn
  Zn21     1.0000 0.22383  0.27617  0.72383  Biso   1.000  Zn
  Zn22     1.0000 0.22383  0.72383  0.27617  Biso   1.000  Zn
  Zn23     1.0000 0.77617  0.27617  0.27617  Biso   1.000  Zn
  Zn24     1.0000 0.77617  0.72383  0.72383  Biso   1.000  Zn
  Zn25     1.0000 0.22383  0.77617  0.77617  Biso   1.000  Zn
  Zn26     1.0000 0.22383  0.22383  0.22383  Biso   1.000  Zn
  Zn27     1.0000 0.77617  0.22383  0.77617  Biso   1.000  Zn
  Zn28     1.0000 0.77617  0.77617  0.22383  Biso   1.000  Zn
  Zn29     1.0000 0.22383  0.77617  0.22383  Biso   1.000  Zn
  Zn30     1.0000 0.22383  0.22383  0.77617  Biso   1.000  Zn
  Zn31     1.0000 0.77617  0.77617  0.77617  Biso   1.000  Zn
  Zn32     1.0000 0.77617  0.22383  0.22383  Biso   1.000  Zn
  Zn33     1.0000 0.97912  0.74733  0.49361  Biso   1.000  Zn
  Zn34     1.0000 0.47666  0.24979  0.99115  Biso   1.000  Zn
  Zn35     1.0000 0.49437  0.24979  0.49361  Biso   1.000  Zn
  Zn36     1.0000 0.99190  0.74733  0.99115  Biso   1.000  Zn
  Zn37     1.0000 0.73674  0.99856  0.00000  Biso   1.000  Zn
  Zn38     1.0000 0.23428  0.49610  0.50246  Biso   1.000  Zn
  Zn39     1.0000 0.23428  0.99856  0.48475  Biso   1.000  Zn
  Zn40     1.0000 0.73674  0.49610  0.98722  Biso   1.000  Zn
  Zn41     1.0000 0.48551  0.50495  0.24238  Biso   1.000  Zn
  Zn42     1.0000 0.98797  0.00741  0.74484  Biso   1.000  Zn
  Zn43     1.0000 0.48551  0.98970  0.74484  Biso   1.000  Zn
  Zn44     1.0000 0.98797  0.49217  0.24238  Biso   1.000  Zn
  Zn45     1.0000 0.99190  0.24979  0.49361  Biso   1.000  Zn
  Zn46     1.0000 0.49437  0.74733  0.99115  Biso   1.000  Zn
  Zn47     1.0000 0.47666  0.74733  0.49361  Biso   1.000  Zn
  Zn48     1.0000 0.97912  0.24979  0.99115  Biso   1.000  Zn
  Zn49     1.0000 0.23428  0.99856  0.98722  Biso   1.000  Zn
  Zn50     1.0000 0.73674  0.49610  0.48475  Biso   1.000  Zn
  Zn51     1.0000 0.73674  0.99856  0.50246  Biso   1.000  Zn
  Zn52     1.0000 0.23428  0.49610  0.00000  Biso   1.000  Zn
  Zn53     1.0000 0.48551  0.49217  0.74484  Biso   1.000  Zn
  Zn54     1.0000 0.98797  0.98970  0.24238  Biso   1.000  Zn
  Zn55     1.0000 0.48551  0.00741  0.24238  Biso   1.000  Zn
  Zn56     1.0000 0.98797  0.50495  0.74484  Biso   1.000  Zn
  Zn57     1.0000 0.80457  0.82514  0.32246  Biso   1.000  Zn
  Zn58     1.0000 0.30211  0.17198  0.16229  Biso   1.000  Zn
  Zn59     1.0000 0.66891  0.32760  0.66476  Biso   1.000  Zn
  Zn60     1.0000 0.16645  0.66952  0.82492  Biso   1.000  Zn
  Zn61     1.0000 0.65893  0.82741  0.17454  Biso   1.000  Zn
  Zn62     1.0000 0.31209  0.66725  0.67701  Biso   1.000  Zn
  Zn63     1.0000 0.15647  0.16971  0.31021  Biso   1.000  Zn
  Zn64     1.0000 0.81455  0.32987  0.81267  Biso   1.000  Zn
  Zn65     1.0000 0.65666  0.67950  0.32019  Biso   1.000  Zn
  Zn66     1.0000 0.81682  0.18196  0.66703  Biso   1.000  Zn
  Zn67     1.0000 0.31436  0.81516  0.82265  Biso   1.000  Zn
  Zn68     1.0000 0.15420  0.31762  0.16457  Biso   1.000  Zn
  Zn69     1.0000 0.30211  0.32760  0.82492  Biso   1.000  Zn
  Zn70     1.0000 0.80457  0.66952  0.66476  Biso   1.000  Zn
  Zn71     1.0000 0.16645  0.82514  0.16229  Biso   1.000  Zn
  Zn72     1.0000 0.66891  0.17198  0.32246  Biso   1.000  Zn
  Zn73     1.0000 0.15647  0.32987  0.67701  Biso   1.000  Zn
  Zn74     1.0000 0.81455  0.16971  0.17454  Biso   1.000  Zn
  Zn75     1.0000 0.65893  0.66725  0.81267  Biso   1.000  Zn
  Zn76     1.0000 0.31209  0.82741  0.31021  Biso   1.000  Zn
  Zn77     1.0000 0.15420  0.18196  0.82265  Biso   1.000  Zn
  Zn78     1.0000 0.31436  0.67950  0.16457  Biso   1.000  Zn
  Zn79     1.0000 0.81682  0.31762  0.32019  Biso   1.000  Zn
  Zn80     1.0000 0.65666  0.81516  0.66703  Biso   1.000  Zn
  Zn81     1.0000 0.16645  0.17198  0.66476  Biso   1.000  Zn
  Zn82     1.0000 0.66891  0.82514  0.82492  Biso   1.000  Zn
  Zn83     1.0000 0.30211  0.66952  0.32246  Biso   1.000  Zn
  Zn84     1.0000 0.80457  0.32760  0.16229  Biso   1.000  Zn
  Zn85     1.0000 0.31209  0.16971  0.81267  Biso   1.000  Zn
  Zn86     1.0000 0.65893  0.32987  0.31021  Biso   1.000  Zn
  Zn87     1.0000 0.81455  0.82741  0.67701  Biso   1.000  Zn
  Zn88     1.0000 0.15647  0.66725  0.17454  Biso   1.000  Zn
  Zn89     1.0000 0.31436  0.31762  0.66703  Biso   1.000  Zn
  Zn90     1.0000 0.15420  0.81516  0.32019  Biso   1.000  Zn
  Zn91     1.0000 0.65666  0.18196  0.16457  Biso   1.000  Zn
  Zn92     1.0000 0.81682  0.67950  0.82265  Biso   1.000  Zn
  Zn93     1.0000 0.66891  0.66952  0.16229  Biso   1.000  Zn
  Zn94     1.0000 0.16645  0.32760  0.32246  Biso   1.000  Zn
  Zn95     1.0000 0.80457  0.17198  0.82492  Biso   1.000  Zn
  Zn96     1.0000 0.30211  0.82514  0.66476  Biso   1.000  Zn
  Zn97     1.0000 0.81455  0.66725  0.31021  Biso   1.000  Zn
  Zn98     1.0000 0.15647  0.82741  0.81267  Biso   1.000  Zn
  Zn99     1.0000 0.31209  0.32987  0.17454  Biso   1.000  Zn
  Zn100    1.0000 0.65893  0.16971  0.67701  Biso   1.000  Zn
  Zn101    1.0000 0.81682  0.81516  0.16457  Biso   1.000  Zn
  Zn102    1.0000 0.65666  0.31762  0.82265  Biso   1.000  Zn
  Zn103    1.0000 0.15420  0.67950  0.66703  Biso   1.000  Zn
  Zn104    1.0000 0.31436  0.18196  0.32019  Biso   1.000  Zn
  Zn105    1.0000 0.86032  0.61839  0.36000  Biso   1.000  Zn
  Zn106    1.0000 0.35786  0.37873  0.12475  Biso   1.000  Zn
  Zn107    1.0000 0.61317  0.12085  0.62721  Biso   1.000  Zn
  Zn108    1.0000 0.11071  0.87627  0.86246  Biso   1.000  Zn
  Zn109    1.0000 0.86568  0.86495  0.11880  Biso   1.000  Zn
  Zn110    1.0000 0.10534  0.62970  0.62126  Biso   1.000  Zn
  Zn111    1.0000 0.36322  0.13216  0.36595  Biso   1.000  Zn
  Zn112    1.0000 0.60780  0.36741  0.86841  Biso   1.000  Zn
  Zn113    1.0000 0.61912  0.62375  0.11344  Biso   1.000  Zn
  Zn114    1.0000 0.85437  0.12621  0.87378  Biso   1.000  Zn
  Zn115    1.0000 0.35191  0.87090  0.61590  Biso   1.000  Zn
  Zn116    1.0000 0.11666  0.37336  0.37132  Biso   1.000  Zn
  Zn117    1.0000 0.35786  0.12085  0.86246  Biso   1.000  Zn
  Zn118    1.0000 0.86032  0.87627  0.62721  Biso   1.000  Zn
  Zn119    1.0000 0.11071  0.61839  0.12475  Biso   1.000  Zn
  Zn120    1.0000 0.61317  0.37873  0.36000  Biso   1.000  Zn
  Zn121    1.0000 0.36322  0.36741  0.62126  Biso   1.000  Zn
  Zn122    1.0000 0.60780  0.13216  0.11880  Biso   1.000  Zn
  Zn123    1.0000 0.86568  0.62970  0.86841  Biso   1.000  Zn
  Zn124    1.0000 0.10534  0.86495  0.36595  Biso   1.000  Zn
  Zn125    1.0000 0.11666  0.12621  0.61590  Biso   1.000  Zn
  Zn126    1.0000 0.35191  0.62375  0.37132  Biso   1.000  Zn
  Zn127    1.0000 0.85437  0.37336  0.11344  Biso   1.000  Zn
  Zn128    1.0000 0.61912  0.87090  0.87378  Biso   1.000  Zn
  Zn129    1.0000 0.11071  0.37873  0.62721  Biso   1.000  Zn
  Zn130    1.0000 0.61317  0.61839  0.86246  Biso   1.000  Zn
  Zn131    1.0000 0.35786  0.87627  0.36000  Biso   1.000  Zn
  Zn132    1.0000 0.86032  0.12085  0.12475  Biso   1.000  Zn
  Zn133    1.0000 0.10534  0.13216  0.86841  Biso   1.000  Zn
  Zn134    1.0000 0.86568  0.36741  0.36595  Biso   1.000  Zn
  Zn135    1.0000 0.60780  0.86495  0.62126  Biso   1.000  Zn
  Zn136    1.0000 0.36322  0.62970  0.11880  Biso   1.000  Zn
  Zn137    1.0000 0.35191  0.37336  0.87378  Biso   1.000  Zn
  Zn138    1.0000 0.11666  0.87090  0.11344  Biso   1.000  Zn
  Zn139    1.0000 0.61912  0.12621  0.37132  Biso   1.000  Zn
  Zn140    1.0000 0.85437  0.62375  0.61590  Biso   1.000  Zn
  Zn141    1.0000 0.61317  0.87627  0.12475  Biso   1.000  Zn
  Zn142    1.0000 0.11071  0.12085  0.36000  Biso   1.000  Zn
  Zn143    1.0000 0.86032  0.37873  0.86246  Biso   1.000  Zn
  Zn144    1.0000 0.35786  0.61839  0.62721  Biso   1.000  Zn
  Zn145    1.0000 0.60780  0.62970  0.36595  Biso   1.000  Zn
  Zn146    1.0000 0.36322  0.86495  0.86841  Biso   1.000  Zn
  Zn147    1.0000 0.10534  0.36741  0.11880  Biso   1.000  Zn
  Zn148    1.0000 0.86568  0.13216  0.62126  Biso   1.000  Zn
  Zn149    1.0000 0.85437  0.87090  0.37132  Biso   1.000  Zn
  Zn150    1.0000 0.61912  0.37336  0.61590  Biso   1.000  Zn
  Zn151    1.0000 0.11666  0.62375  0.87378  Biso   1.000  Zn
  Zn152    1.0000 0.35191  0.12621  0.11344  Biso   1.000  Zn
  Zn153    1.0000 0.15080  0.66385  0.32586  Biso   1.000  Zn
  Zn154    1.0000 0.65326  0.33327  0.15890  Biso   1.000  Zn
  Zn155    1.0000 0.31776  0.16631  0.66136  Biso   1.000  Zn
  Zn156    1.0000 0.82022  0.83081  0.82832  Biso   1.000  Zn
  Zn157    1.0000 0.65326  0.16631  0.82832  Biso   1.000  Zn
  Zn158    1.0000 0.15080  0.83081  0.66136  Biso   1.000  Zn
  Zn159    1.0000 0.82022  0.66385  0.15890  Biso   1.000  Zn
  Zn160    1.0000 0.31776  0.33327  0.32586  Biso   1.000  Zn
  Zn161    1.0000 0.82022  0.33327  0.66136  Biso   1.000  Zn
  Zn162    1.0000 0.31776  0.66385  0.82832  Biso   1.000  Zn
  Zn163    1.0000 0.65326  0.83081  0.32586  Biso   1.000  Zn
  Zn164    1.0000 0.15080  0.16631  0.15890  Biso   1.000  Zn
  Zn165    1.0000 0.31776  0.83081  0.15890  Biso   1.000  Zn
  Zn166    1.0000 0.82022  0.16631  0.32586  Biso   1.000  Zn
  Zn167    1.0000 0.15080  0.33327  0.82832  Biso   1.000  Zn
  Zn168    1.0000 0.65326  0.66385  0.66136  Biso   1.000  Zn
  Zn169    1.0000 0.10263  0.61567  0.37403  Biso   1.000  Zn
  Zn170    1.0000 0.60509  0.38144  0.11072  Biso   1.000  Zn
  Zn171    1.0000 0.36594  0.11813  0.61318  Biso   1.000  Zn
  Zn172    1.0000 0.86840  0.87898  0.87649  Biso   1.000  Zn
  Zn173    1.0000 0.60509  0.11813  0.87649  Biso   1.000  Zn
  Zn174    1.0000 0.10263  0.87898  0.61318  Biso   1.000  Zn
  Zn175    1.0000 0.86840  0.61567  0.11072  Biso   1.000  Zn
  Zn176    1.0000 0.36594  0.38144  0.37403  Biso   1.000  Zn
  Zn177    1.0000 0.86840  0.38144  0.61318  Biso   1.000  Zn
  Zn178    1.0000 0.36594  0.61567  0.87649  Biso   1.000  Zn
  Zn179    1.0000 0.60509  0.87898  0.37403  Biso   1.000  Zn
  Zn180    1.0000 0.10263  0.11813  0.11072  Biso   1.000  Zn
  Zn181    1.0000 0.36594  0.87898  0.11072  Biso   1.000  Zn
  Zn182    1.0000 0.86840  0.11813  0.37403  Biso   1.000  Zn
  Zn183    1.0000 0.10263  0.38144  0.87649  Biso   1.000  Zn
  Zn184    1.0000 0.60509  0.61567  0.61318  Biso   1.000  Zn
  C625     1.0000 0.86809  0.71758  0.37573  Biso   1.000  C
  C626     1.0000 0.36562  0.27953  0.10902  Biso   1.000  C
  C627     1.0000 0.60540  0.22004  0.61148  Biso   1.000  C
  C628     1.0000 0.10294  0.77707  0.87819  Biso   1.000  C
  C629     1.0000 0.76649  0.88068  0.11103  Biso   1.000  C
  C630     1.0000 0.20454  0.61397  0.61349  Biso   1.000  C
  C631     1.0000 0.26403  0.11644  0.37372  Biso   1.000  C
  C632     1.0000 0.70700  0.38314  0.87618  Biso   1.000  C
  C633     1.0000 0.60339  0.61598  0.21263  Biso   1.000  C
  C634     1.0000 0.87010  0.11844  0.77458  Biso   1.000  C
  C635     1.0000 0.36763  0.87867  0.71509  Biso   1.000  C
  C636     1.0000 0.10093  0.38113  0.27212  Biso   1.000  C
  C637     1.0000 0.36562  0.22004  0.87819  Biso   1.000  C
  C638     1.0000 0.86809  0.77707  0.61148  Biso   1.000  C
  C639     1.0000 0.10294  0.71758  0.10902  Biso   1.000  C
  C640     1.0000 0.60540  0.27953  0.37573  Biso   1.000  C
  C641     1.0000 0.26403  0.38314  0.61349  Biso   1.000  C
  C642     1.0000 0.70700  0.11644  0.11103  Biso   1.000  C
  C643     1.0000 0.76649  0.61397  0.87618  Biso   1.000  C
  C644     1.0000 0.20454  0.88068  0.37372  Biso   1.000  C
  C645     1.0000 0.10093  0.11844  0.71509  Biso   1.000  C
  C646     1.0000 0.36763  0.61598  0.27212  Biso   1.000  C
  C647     1.0000 0.87010  0.38113  0.21263  Biso   1.000  C
  C648     1.0000 0.60339  0.87867  0.77458  Biso   1.000  C
  C649     1.0000 0.10294  0.27953  0.61148  Biso   1.000  C
  C650     1.0000 0.60540  0.71758  0.87819  Biso   1.000  C
  C651     1.0000 0.36562  0.77707  0.37573  Biso   1.000  C
  C652     1.0000 0.86809  0.22004  0.10902  Biso   1.000  C
  C653     1.0000 0.20454  0.11644  0.87618  Biso   1.000  C
  C654     1.0000 0.76649  0.38314  0.37372  Biso   1.000  C
  C655     1.0000 0.70700  0.88068  0.61349  Biso   1.000  C
  C656     1.0000 0.26403  0.61397  0.11103  Biso   1.000  C
  C657     1.0000 0.36763  0.38113  0.77458  Biso   1.000  C
  C658     1.0000 0.10093  0.87867  0.21263  Biso   1.000  C
  C659     1.0000 0.60339  0.11844  0.27212  Biso   1.000  C
  C660     1.0000 0.87010  0.61598  0.71509  Biso   1.000  C
  C661     1.0000 0.60540  0.77707  0.10902  Biso   1.000  C
  C662     1.0000 0.10294  0.22004  0.37573  Biso   1.000  C
  C663     1.0000 0.86809  0.27953  0.87819  Biso   1.000  C
  C664     1.0000 0.36562  0.71758  0.61148  Biso   1.000  C
  C665     1.0000 0.70700  0.61397  0.37372  Biso   1.000  C
  C666     1.0000 0.26403  0.88068  0.87618  Biso   1.000  C
  C667     1.0000 0.20454  0.38314  0.11103  Biso   1.000  C
  C668     1.0000 0.76649  0.11644  0.61349  Biso   1.000  C
  C669     1.0000 0.87010  0.87867  0.27212  Biso   1.000  C
  C670     1.0000 0.60339  0.38113  0.71509  Biso   1.000  C
  C671     1.0000 0.10093  0.61598  0.77458  Biso   1.000  C
  C672     1.0000 0.36763  0.11844  0.21263  Biso   1.000  C
  C673     1.0000 0.85613  0.74602  0.36638  Biso   1.000  C
  C674     1.0000 0.35367  0.25109  0.11837  Biso   1.000  C
  C675     1.0000 0.61736  0.24848  0.62083  Biso   1.000  C
  C676     1.0000 0.11490  0.74863  0.86885  Biso   1.000  C
  C677     1.0000 0.73805  0.87133  0.12299  Biso   1.000  C
  C678     1.0000 0.23298  0.62332  0.62545  Biso   1.000  C
  C679     1.0000 0.23559  0.12578  0.36176  Biso   1.000  C
  C680     1.0000 0.73544  0.37380  0.86422  Biso   1.000  C
  C681     1.0000 0.61273  0.62794  0.24107  Biso   1.000  C
  C682     1.0000 0.86075  0.13040  0.74614  Biso   1.000  C
  C683     1.0000 0.35829  0.86671  0.74353  Biso   1.000  C
  C684     1.0000 0.11027  0.36917  0.24368  Biso   1.000  C
  C685     1.0000 0.35367  0.24848  0.86885  Biso   1.000  C
  C686     1.0000 0.85613  0.74863  0.62083  Biso   1.000  C
  C687     1.0000 0.11490  0.74602  0.11837  Biso   1.000  C
  C688     1.0000 0.61736  0.25109  0.36638  Biso   1.000  C
  C689     1.0000 0.23559  0.37380  0.62545  Biso   1.000  C
  C690     1.0000 0.73544  0.12578  0.12299  Biso   1.000  C
  C691     1.0000 0.73805  0.62332  0.86422  Biso   1.000  C
  C692     1.0000 0.23298  0.87133  0.36176  Biso   1.000  C
  C693     1.0000 0.11027  0.13040  0.74353  Biso   1.000  C
  C694     1.0000 0.35829  0.62794  0.24368  Biso   1.000  C
  C695     1.0000 0.86075  0.36917  0.24107  Biso   1.000  C
  C696     1.0000 0.61274  0.86671  0.74614  Biso   1.000  C
  C697     1.0000 0.11490  0.25109  0.62083  Biso   1.000  C
  C698     1.0000 0.61736  0.74602  0.86885  Biso   1.000  C
  C699     1.0000 0.35367  0.74863  0.36638  Biso   1.000  C
  C700     1.0000 0.85613  0.24848  0.11837  Biso   1.000  C
  C701     1.0000 0.23298  0.12578  0.86422  Biso   1.000  C
  C702     1.0000 0.73805  0.37380  0.36176  Biso   1.000  C
  C703     1.0000 0.73544  0.87133  0.62545  Biso   1.000  C
  C704     1.0000 0.23559  0.62332  0.12299  Biso   1.000  C
  C705     1.0000 0.35829  0.36917  0.74614  Biso   1.000  C
  C706     1.0000 0.11027  0.86671  0.24107  Biso   1.000  C
  C707     1.0000 0.61273  0.13040  0.24368  Biso   1.000  C
  C708     1.0000 0.86075  0.62794  0.74353  Biso   1.000  C
  C709     1.0000 0.61736  0.74863  0.11837  Biso   1.000  C
  C710     1.0000 0.11490  0.24848  0.36638  Biso   1.000  C
  C711     1.0000 0.85613  0.25109  0.86885  Biso   1.000  C
  C712     1.0000 0.35367  0.74602  0.62083  Biso   1.000  C
  C713     1.0000 0.73544  0.62332  0.36176  Biso   1.000  C
  C714     1.0000 0.23559  0.87133  0.86422  Biso   1.000  C
  C715     1.0000 0.23298  0.37380  0.12299  Biso   1.000  C
  C716     1.0000 0.73805  0.12578  0.62545  Biso   1.000  C
  C717     1.0000 0.86075  0.86671  0.24368  Biso   1.000  C
  C718     1.0000 0.61274  0.36917  0.74353  Biso   1.000  C
  C719     1.0000 0.11027  0.62794  0.74614  Biso   1.000  C
  C720     1.0000 0.35829  0.13040  0.24107  Biso   1.000  C
  H817     1.0000 0.84125  0.74602  0.34990  Biso   1.000  H
  H818     1.0000 0.33879  0.25109  0.13485  Biso   1.000  H
  H819     1.0000 0.63223  0.24848  0.63731  Biso   1.000  H
  H820     1.0000 0.12977  0.74863  0.85236  Biso   1.000  H
  H821     1.0000 0.73805  0.85485  0.13787  Biso   1.000  H
  H822     1.0000 0.23298  0.63980  0.64033  Biso   1.000  H
  H823     1.0000 0.23559  0.14226  0.34689  Biso   1.000  H
  H824     1.0000 0.73544  0.35731  0.84935  Biso   1.000  H
  H825     1.0000 0.62922  0.64282  0.24107  Biso   1.000  H
  H826     1.0000 0.84427  0.14528  0.74614  Biso   1.000  H
  H827     1.0000 0.34181  0.85184  0.74353  Biso   1.000  H
  H828     1.0000 0.12675  0.35430  0.24368  Biso   1.000  H
  H829     1.0000 0.33879  0.24848  0.85236  Biso   1.000  H
  H830     1.0000 0.84125  0.74863  0.63731  Biso   1.000  H
  H831     1.0000 0.12977  0.74602  0.13485  Biso   1.000  H
  H832     1.0000 0.63223  0.25109  0.34990  Biso   1.000  H
  H833     1.0000 0.23559  0.35731  0.64033  Biso   1.000  H
  H834     1.0000 0.73544  0.14226  0.13787  Biso   1.000  H
  H835     1.0000 0.73805  0.63980  0.84935  Biso   1.000  H
  H836     1.0000 0.23298  0.85485  0.34689  Biso   1.000  H
  H837     1.0000 0.12675  0.14528  0.74353  Biso   1.000  H
  H838     1.0000 0.34181  0.64282  0.24368  Biso   1.000  H
  H839     1.0000 0.84427  0.35430  0.24107  Biso   1.000  H
  H840     1.0000 0.62922  0.85184  0.74614  Biso   1.000  H
  H841     1.0000 0.12977  0.25109  0.63731  Biso   1.000  H
  H842     1.0000 0.63223  0.74602  0.85236  Biso   1.000  H
  H843     1.0000 0.33879  0.74863  0.34990  Biso   1.000  H
  H844     1.0000 0.84125  0.24848  0.13485  Biso   1.000  H
  H845     1.0000 0.23298  0.14226  0.84935  Biso   1.000  H
  H846     1.0000 0.73805  0.35731  0.34689  Biso   1.000  H
  H847     1.0000 0.73544  0.85485  0.64033  Biso   1.000  H
  H848     1.0000 0.23559  0.63980  0.13787  Biso   1.000  H
  H849     1.0000 0.34181  0.35430  0.74614  Biso   1.000  H
  H850     1.0000 0.12675  0.85184  0.24107  Biso   1.000  H
  H851     1.0000 0.62922  0.14528  0.24368  Biso   1.000  H
  H852     1.0000 0.84427  0.64282  0.74353  Biso   1.000  H
  H853     1.0000 0.63223  0.74863  0.13485  Biso   1.000  H
  H854     1.0000 0.12977  0.24848  0.34990  Biso   1.000  H
  H855     1.0000 0.84125  0.25109  0.85236  Biso   1.000  H
  H856     1.0000 0.33879  0.74602  0.63731  Biso   1.000  H
  H857     1.0000 0.73544  0.63980  0.34689  Biso   1.000  H
  H858     1.0000 0.23559  0.85485  0.84935  Biso   1.000  H
  H859     1.0000 0.23298  0.35731  0.13787  Biso   1.000  H
  H860     1.0000 0.73805  0.14226  0.64033  Biso   1.000  H
  H861     1.0000 0.84427  0.85184  0.24368  Biso   1.000  H
  H862     1.0000 0.62922  0.35430  0.74353  Biso   1.000  H
  H863     1.0000 0.12675  0.64282  0.74614  Biso   1.000  H
  H864     1.0000 0.34181  0.14528  0.24107  Biso   1.000  H
  C721     1.0000 0.88708  0.77376  0.40176  Biso   1.000  C
  C722     1.0000 0.38462  0.22336  0.08300  Biso   1.000  C
  C723     1.0000 0.58641  0.27622  0.58546  Biso   1.000  C
  C724     1.0000 0.08395  0.72090  0.90422  Biso   1.000  C
  C725     1.0000 0.71031  0.90671  0.09204  Biso   1.000  C
  C726     1.0000 0.26071  0.58795  0.59450  Biso   1.000  C
  C727     1.0000 0.20785  0.09041  0.39271  Biso   1.000  C
  C728     1.0000 0.76317  0.40917  0.89517  Biso   1.000  C
  C729     1.0000 0.57736  0.59699  0.26881  Biso   1.000  C
  C730     1.0000 0.89612  0.09945  0.71841  Biso   1.000  C
  C731     1.0000 0.39366  0.89766  0.77127  Biso   1.000  C
  C732     1.0000 0.07490  0.40012  0.21595  Biso   1.000  C
  C733     1.0000 0.38462  0.27622  0.90422  Biso   1.000  C
  C734     1.0000 0.88708  0.72090  0.58546  Biso   1.000  C
  C735     1.0000 0.08395  0.77376  0.08300  Biso   1.000  C
  C736     1.0000 0.58641  0.22336  0.40176  Biso   1.000  C
  C737     1.0000 0.20785  0.40917  0.59450  Biso   1.000  C
  C738     1.0000 0.76317  0.09041  0.09204  Biso   1.000  C
  C739     1.0000 0.71031  0.58795  0.89517  Biso   1.000  C
  C740     1.0000 0.26071  0.90671  0.39271  Biso   1.000  C
  C741     1.0000 0.07490  0.09945  0.77127  Biso   1.000  C
  C742     1.0000 0.39366  0.59699  0.21595  Biso   1.000  C
  C743     1.0000 0.89612  0.40012  0.26881  Biso   1.000  C
  C744     1.0000 0.57736  0.89766  0.71841  Biso   1.000  C
  C745     1.0000 0.08395  0.22336  0.58546  Biso   1.000  C
  C746     1.0000 0.58641  0.77376  0.90422  Biso   1.000  C
  C747     1.0000 0.38462  0.72090  0.40176  Biso   1.000  C
  C748     1.0000 0.88708  0.27622  0.08300  Biso   1.000  C
  C749     1.0000 0.26071  0.09041  0.89517  Biso   1.000  C
  C750     1.0000 0.71031  0.40917  0.39271  Biso   1.000  C
  C751     1.0000 0.76317  0.90671  0.59450  Biso   1.000  C
  C752     1.0000 0.20785  0.58795  0.09204  Biso   1.000  C
  C753     1.0000 0.39366  0.40012  0.71841  Biso   1.000  C
  C754     1.0000 0.07490  0.89766  0.26881  Biso   1.000  C
  C755     1.0000 0.57736  0.09945  0.21595  Biso   1.000  C
  C756     1.0000 0.89612  0.59699  0.77127  Biso   1.000  C
  C757     1.0000 0.58641  0.72090  0.08300  Biso   1.000  C
  C758     1.0000 0.08395  0.27622  0.40176  Biso   1.000  C
  C759     1.0000 0.88708  0.22336  0.90422  Biso   1.000  C
  C760     1.0000 0.38462  0.77376  0.58546  Biso   1.000  C
  C761     1.0000 0.76317  0.58795  0.39271  Biso   1.000  C
  C762     1.0000 0.20785  0.90671  0.89517  Biso   1.000  C
  C763     1.0000 0.26071  0.40917  0.09204  Biso   1.000  C
  C764     1.0000 0.71031  0.09041  0.59450  Biso   1.000  C
  C765     1.0000 0.89612  0.89766  0.21595  Biso   1.000  C
  C766     1.0000 0.57736  0.40012  0.77127  Biso   1.000  C
  C767     1.0000 0.07490  0.59699  0.71841  Biso   1.000  C
  C768     1.0000 0.39366  0.09945  0.26881  Biso   1.000  C
  H865     1.0000 0.89472  0.79285  0.41020  Biso   1.000  H
  H866     1.0000 0.39226  0.20427  0.07456  Biso   1.000  H
  H867     1.0000 0.57877  0.29531  0.57702  Biso   1.000  H
  H868     1.0000 0.07631  0.70180  0.91266  Biso   1.000  H
  H869     1.0000 0.69122  0.91515  0.08440  Biso   1.000  H
  H870     1.0000 0.27980  0.57951  0.58686  Biso   1.000  H
  H871     1.0000 0.18876  0.08197  0.40035  Biso   1.000  H
  H872     1.0000 0.78227  0.41761  0.90281  Biso   1.000  H
  H873     1.0000 0.56892  0.58935  0.28790  Biso   1.000  H
  H874     1.0000 0.90456  0.09181  0.69931  Biso   1.000  H
  H875     1.0000 0.40210  0.90530  0.79036  Biso   1.000  H
  H876     1.0000 0.06646  0.40776  0.19685  Biso   1.000  H
  H877     1.0000 0.39226  0.29531  0.91266  Biso   1.000  H
  H878     1.0000 0.89472  0.70180  0.57702  Biso   1.000  H
  H879     1.0000 0.07631  0.79285  0.07456  Biso   1.000  H
  H880     1.0000 0.57877  0.20427  0.41020  Biso   1.000  H
  H881     1.0000 0.18876  0.41761  0.58686  Biso   1.000  H
  H882     1.0000 0.78227  0.08197  0.08440  Biso   1.000  H
  H883     1.0000 0.69122  0.57951  0.90281  Biso   1.000  H
  H884     1.0000 0.27980  0.91515  0.40035  Biso   1.000  H
  H885     1.0000 0.06646  0.09181  0.79036  Biso   1.000  H
  H886     1.0000 0.40210  0.58935  0.19685  Biso   1.000  H
  H887     1.0000 0.90456  0.40776  0.28790  Biso   1.000  H
  H888     1.0000 0.56892  0.90530  0.69931  Biso   1.000  H
  H889     1.0000 0.07631  0.20427  0.57702  Biso   1.000  H
  H890     1.0000 0.57877  0.79285  0.91266  Biso   1.000  H
  H891     1.0000 0.39226  0.70180  0.41020  Biso   1.000  H
  H892     1.0000 0.89472  0.29531  0.07456  Biso   1.000  H
  H893     1.0000 0.27980  0.08197  0.90281  Biso   1.000  H
  H894     1.0000 0.69122  0.41761  0.40035  Biso   1.000  H
  H895     1.0000 0.78227  0.91515  0.58686  Biso   1.000  H
  H896     1.0000 0.18876  0.57951  0.08440  Biso   1.000  H
  H897     1.0000 0.40210  0.40776  0.69931  Biso   1.000  H
  H898     1.0000 0.06646  0.90530  0.28790  Biso   1.000  H
  H899     1.0000 0.56892  0.09181  0.19685  Biso   1.000  H
  H900     1.0000 0.90456  0.58935  0.79036  Biso   1.000  H
  H901     1.0000 0.57877  0.70180  0.07456  Biso   1.000  H
  H902     1.0000 0.07631  0.29531  0.41020  Biso   1.000  H
  H903     1.0000 0.89472  0.20427  0.91266  Biso   1.000  H
  H904     1.0000 0.39226  0.79285  0.57702  Biso   1.000  H
  H905     1.0000 0.78227  0.57951  0.40035  Biso   1.000  H
  H906     1.0000 0.18876  0.91515  0.90281  Biso   1.000  H
  H907     1.0000 0.27980  0.41761  0.08440  Biso   1.000  H
  H908     1.0000 0.69122  0.08197  0.58686  Biso   1.000  H
  H909     1.0000 0.90456  0.90530  0.19685  Biso   1.000  H
  H910     1.0000 0.56892  0.40776  0.79036  Biso   1.000  H
  H911     1.0000 0.06646  0.58935  0.69932  Biso   1.000  H
  H912     1.0000 0.40210  0.09181  0.28790  Biso   1.000  H
  C769     1.0000 0.89763  0.74652  0.41130  Biso   1.000  C
  C770     1.0000 0.39517  0.25059  0.07345  Biso   1.000  C
  C771     1.0000 0.57585  0.24898  0.57591  Biso   1.000  C
  C772     1.0000 0.07339  0.74813  0.91377  Biso   1.000  C
  C773     1.0000 0.73755  0.91625  0.08149  Biso   1.000  C
  C774     1.0000 0.23348  0.57840  0.58395  Biso   1.000  C
  C775     1.0000 0.23509  0.08086  0.40327  Biso   1.000  C
  C776     1.0000 0.73594  0.41872  0.90573  Biso   1.000  C
  C777     1.0000 0.56781  0.58644  0.24157  Biso   1.000  C
  C778     1.0000 0.90567  0.08890  0.74564  Biso   1.000  C
  C779     1.0000 0.40321  0.90822  0.74403  Biso   1.000  C
  C780     1.0000 0.06535  0.41068  0.24318  Biso   1.000  C
  C781     1.0000 0.39517  0.24898  0.91377  Biso   1.000  C
  C782     1.0000 0.89763  0.74813  0.57591  Biso   1.000  C
  C783     1.0000 0.07339  0.74652  0.07345  Biso   1.000  C
  C784     1.0000 0.57585  0.25059  0.41130  Biso   1.000  C
  C785     1.0000 0.23509  0.41872  0.58395  Biso   1.000  C
  C786     1.0000 0.73594  0.08086  0.08149  Biso   1.000  C
  C787     1.0000 0.73755  0.57840  0.90573  Biso   1.000  C
  C788     1.0000 0.23348  0.91625  0.40327  Biso   1.000  C
  C789     1.0000 0.06535  0.08890  0.74403  Biso   1.000  C
  C790     1.0000 0.40321  0.58644  0.24318  Biso   1.000  C
  C791     1.0000 0.90567  0.41068  0.24157  Biso   1.000  C
  C792     1.0000 0.56782  0.90822  0.74564  Biso   1.000  C
  C793     1.0000 0.07339  0.25059  0.57591  Biso   1.000  C
  C794     1.0000 0.57585  0.74652  0.91377  Biso   1.000  C
  C795     1.0000 0.39517  0.74813  0.41130  Biso   1.000  C
  C796     1.0000 0.89763  0.24898  0.07345  Biso   1.000  C
  C797     1.0000 0.23348  0.08086  0.90573  Biso   1.000  C
  C798     1.0000 0.73755  0.41872  0.40327  Biso   1.000  C
  C799     1.0000 0.73594  0.91625  0.58395  Biso   1.000  C
  C800     1.0000 0.23509  0.57840  0.08149  Biso   1.000  C
  C801     1.0000 0.40321  0.41068  0.74564  Biso   1.000  C
  C802     1.0000 0.06535  0.90822  0.24157  Biso   1.000  C
  C803     1.0000 0.56781  0.08890  0.24318  Biso   1.000  C
  C804     1.0000 0.90567  0.58644  0.74403  Biso   1.000  C
  C805     1.0000 0.57585  0.74813  0.07345  Biso   1.000  C
  C806     1.0000 0.07339  0.24898  0.41130  Biso   1.000  C
  C807     1.0000 0.89763  0.25059  0.91377  Biso   1.000  C
  C808     1.0000 0.39517  0.74652  0.57591  Biso   1.000  C
  C809     1.0000 0.73594  0.57840  0.40327  Biso   1.000  C
  C810     1.0000 0.23509  0.91625  0.90573  Biso   1.000  C
  C811     1.0000 0.23348  0.41872  0.08149  Biso   1.000  C
  C812     1.0000 0.73755  0.08086  0.58395  Biso   1.000  C
  C813     1.0000 0.90567  0.90822  0.24318  Biso   1.000  C
  C814     1.0000 0.56782  0.41068  0.74403  Biso   1.000  C
  C815     1.0000 0.06535  0.58644  0.74564  Biso   1.000  C
  C816     1.0000 0.40321  0.08890  0.24157  Biso   1.000  C
  C817     1.0000 0.88919  0.71748  0.40015  Biso   1.000  C
  C818     1.0000 0.38673  0.27963  0.08460  Biso   1.000  C
  C819     1.0000 0.58430  0.21994  0.58707  Biso   1.000  C
  C820     1.0000 0.08183  0.77717  0.90261  Biso   1.000  C
  C821     1.0000 0.76659  0.90510  0.08993  Biso   1.000  C
  C822     1.0000 0.20444  0.58955  0.59239  Biso   1.000  C
  C823     1.0000 0.26413  0.09202  0.39482  Biso   1.000  C
  C824     1.0000 0.70690  0.40756  0.89728  Biso   1.000  C
  C825     1.0000 0.57897  0.59488  0.21253  Biso   1.000  C
  C826     1.0000 0.89452  0.09734  0.77468  Biso   1.000  C
  C827     1.0000 0.39205  0.89977  0.71499  Biso   1.000  C
  C828     1.0000 0.07651  0.40223  0.27222  Biso   1.000  C
  C829     1.0000 0.38673  0.21994  0.90261  Biso   1.000  C
  C830     1.0000 0.88919  0.77717  0.58707  Biso   1.000  C
  C831     1.0000 0.08183  0.71748  0.08460  Biso   1.000  C
  C832     1.0000 0.58430  0.27963  0.40015  Biso   1.000  C
  C833     1.0000 0.26413  0.40756  0.59239  Biso   1.000  C
  C834     1.0000 0.70690  0.09202  0.08993  Biso   1.000  C
  C835     1.0000 0.76659  0.58955  0.89728  Biso   1.000  C
  C836     1.0000 0.20444  0.90510  0.39482  Biso   1.000  C
  C837     1.0000 0.07651  0.09734  0.71499  Biso   1.000  C
  C838     1.0000 0.39205  0.59488  0.27222  Biso   1.000  C
  C839     1.0000 0.89451  0.40223  0.21253  Biso   1.000  C
  C840     1.0000 0.57897  0.89977  0.77468  Biso   1.000  C
  C841     1.0000 0.08183  0.27963  0.58707  Biso   1.000  C
  C842     1.0000 0.58430  0.71748  0.90261  Biso   1.000  C
  C843     1.0000 0.38673  0.77717  0.40015  Biso   1.000  C
  C844     1.0000 0.88919  0.21994  0.08460  Biso   1.000  C
  C845     1.0000 0.20444  0.09202  0.89728  Biso   1.000  C
  C846     1.0000 0.76659  0.40756  0.39482  Biso   1.000  C
  C847     1.0000 0.70690  0.90510  0.59239  Biso   1.000  C
  C848     1.0000 0.26413  0.58955  0.08993  Biso   1.000  C
  C849     1.0000 0.39205  0.40223  0.77468  Biso   1.000  C
  C850     1.0000 0.07651  0.89977  0.21253  Biso   1.000  C
  C851     1.0000 0.57897  0.09734  0.27222  Biso   1.000  C
  C852     1.0000 0.89452  0.59488  0.71499  Biso   1.000  C
  C853     1.0000 0.58430  0.77717  0.08460  Biso   1.000  C
  C854     1.0000 0.08183  0.21994  0.40015  Biso   1.000  C
  C855     1.0000 0.88919  0.27963  0.90261  Biso   1.000  C
  C856     1.0000 0.38673  0.71748  0.58707  Biso   1.000  C
  C857     1.0000 0.70690  0.58955  0.39482  Biso   1.000  C
  C858     1.0000 0.26413  0.90510  0.89728  Biso   1.000  C
  C859     1.0000 0.20444  0.40756  0.08993  Biso   1.000  C
  C860     1.0000 0.76659  0.09202  0.59239  Biso   1.000  C
  C861     1.0000 0.89451  0.89977  0.27222  Biso   1.000  C
  C862     1.0000 0.57897  0.40223  0.71499  Biso   1.000  C
  C863     1.0000 0.07651  0.59488  0.77468  Biso   1.000  C
  C864     1.0000 0.39205  0.09734  0.21253  Biso   1.000  C
  H913     1.0000 0.89743  0.69869  0.40859  Biso   1.000  H
  H914     1.0000 0.39497  0.29843  0.07616  Biso   1.000  H
  H915     1.0000 0.57606  0.20115  0.57862  Biso   1.000  H
  H916     1.0000 0.07359  0.79597  0.91105  Biso   1.000  H
  H917     1.0000 0.78538  0.91354  0.08169  Biso   1.000  H
  H918     1.0000 0.18564  0.58111  0.58415  Biso   1.000  H
  H919     1.0000 0.28292  0.08357  0.40306  Biso   1.000  H
  H920     1.0000 0.68810  0.41600  0.90552  Biso   1.000  H
  H921     1.0000 0.57053  0.58664  0.19374  Biso   1.000  H
  H922     1.0000 0.90296  0.08910  0.79348  Biso   1.000  H
  H923     1.0000 0.40050  0.90801  0.69620  Biso   1.000  H
  H924     1.0000 0.06807  0.41048  0.29102  Biso   1.000  H
  H925     1.0000 0.39497  0.20115  0.91105  Biso   1.000  H
  H926     1.0000 0.89743  0.79597  0.57862  Biso   1.000  H
  H927     1.0000 0.07359  0.69869  0.07616  Biso   1.000  H
  H928     1.0000 0.57606  0.29843  0.40859  Biso   1.000  H
  H929     1.0000 0.28292  0.41600  0.58415  Biso   1.000  H
  H930     1.0000 0.68810  0.08357  0.08169  Biso   1.000  H
  H931     1.0000 0.78538  0.58111  0.90552  Biso   1.000  H
  H932     1.0000 0.18564  0.91354  0.40306  Biso   1.000  H
  H933     1.0000 0.06807  0.08910  0.69620  Biso   1.000  H
  H934     1.0000 0.40050  0.58664  0.29102  Biso   1.000  H
  H935     1.0000 0.90296  0.41048  0.19374  Biso   1.000  H
  H936     1.0000 0.57053  0.90801  0.79348  Biso   1.000  H
  H937     1.0000 0.07359  0.29843  0.57862  Biso   1.000  H
  H938     1.0000 0.57606  0.69869  0.91105  Biso   1.000  H
  H939     1.0000 0.39497  0.79597  0.40859  Biso   1.000  H
  H940     1.0000 0.89743  0.20115  0.07616  Biso   1.000  H
  H941     1.0000 0.18564  0.08357  0.90552  Biso   1.000  H
  H942     1.0000 0.78538  0.41600  0.40306  Biso   1.000  H
  H943     1.0000 0.68810  0.91354  0.58415  Biso   1.000  H
  H944     1.0000 0.28292  0.58111  0.08169  Biso   1.000  H
  H945     1.0000 0.40050  0.41048  0.79348  Biso   1.000  H
  H946     1.0000 0.06807  0.90801  0.19374  Biso   1.000  H
  H947     1.0000 0.57053  0.08910  0.29102  Biso   1.000  H
  H948     1.0000 0.90296  0.58664  0.69620  Biso   1.000  H
  H949     1.0000 0.57606  0.79597  0.07616  Biso   1.000  H
  H950     1.0000 0.07359  0.20115  0.40859  Biso   1.000  H
  H951     1.0000 0.89743  0.29843  0.91105  Biso   1.000  H
  H952     1.0000 0.39497  0.69869  0.57862  Biso   1.000  H
  H953     1.0000 0.68810  0.58111  0.40306  Biso   1.000  H
  H954     1.0000 0.28292  0.91354  0.90553  Biso   1.000  H
  H955     1.0000 0.18564  0.41600  0.08169  Biso   1.000  H
  H956     1.0000 0.78538  0.08357  0.58415  Biso   1.000  H
  H957     1.0000 0.90296  0.90801  0.29102  Biso   1.000  H
  H958     1.0000 0.57053  0.41048  0.69620  Biso   1.000  H
  H959     1.0000 0.06807  0.58664  0.79348  Biso   1.000  H
  H960     1.0000 0.40050  0.08910  0.19374  Biso   1.000  H
  C865     1.0000 0.92175  0.74632  0.43703  Biso   1.000  C
  C866     1.0000 0.41929  0.25079  0.04772  Biso   1.000  C
  C867     1.0000 0.55174  0.24878  0.55018  Biso   1.000  C
  C868     1.0000 0.04928  0.74833  0.93949  Biso   1.000  C
  C869     1.0000 0.73775  0.94198  0.05737  Biso   1.000  C
  C870     1.0000 0.23328  0.55267  0.55983  Biso   1.000  C
  C871     1.0000 0.23529  0.05513  0.42738  Biso   1.000  C
  C872     1.0000 0.73574  0.44444  0.92984  Biso   1.000  C
  C873     1.0000 0.54209  0.56232  0.24137  Biso   1.000  C
  C874     1.0000 0.93140  0.06478  0.74584  Biso   1.000  C
  C875     1.0000 0.42893  0.93233  0.74383  Biso   1.000  C
  C876     1.0000 0.03963  0.43479  0.24338  Biso   1.000  C
  C877     1.0000 0.41929  0.24878  0.93949  Biso   1.000  C
  C878     1.0000 0.92175  0.74833  0.55018  Biso   1.000  C
  C879     1.0000 0.04928  0.74632  0.04772  Biso   1.000  C
  C880     1.0000 0.55174  0.25079  0.43703  Biso   1.000  C
  C881     1.0000 0.23529  0.44444  0.55983  Biso   1.000  C
  C882     1.0000 0.73574  0.05513  0.05737  Biso   1.000  C
  C883     1.0000 0.73775  0.55267  0.92984  Biso   1.000  C
  C884     1.0000 0.23328  0.94198  0.42738  Biso   1.000  C
  C885     1.0000 0.03963  0.06478  0.74383  Biso   1.000  C
  C886     1.0000 0.42893  0.56232  0.24338  Biso   1.000  C
  C887     1.0000 0.93140  0.43479  0.24137  Biso   1.000  C
  C888     1.0000 0.54209  0.93233  0.74584  Biso   1.000  C
  C889     1.0000 0.04928  0.25079  0.55018  Biso   1.000  C
  C890     1.0000 0.55174  0.74632  0.93949  Biso   1.000  C
  C891     1.0000 0.41929  0.74833  0.43703  Biso   1.000  C
  C892     1.0000 0.92175  0.24878  0.04772  Biso   1.000  C
  C893     1.0000 0.23328  0.05513  0.92984  Biso   1.000  C
  C894     1.0000 0.73775  0.44444  0.42738  Biso   1.000  C
  C895     1.0000 0.73574  0.94198  0.55983  Biso   1.000  C
  C896     1.0000 0.23529  0.55267  0.05737  Biso   1.000  C
  C897     1.0000 0.42893  0.43479  0.74584  Biso   1.000  C
  C898     1.0000 0.03963  0.93233  0.24137  Biso   1.000  C
  C899     1.0000 0.54209  0.06478  0.24338  Biso   1.000  C
  C900     1.0000 0.93140  0.56232  0.74383  Biso   1.000  C
  C901     1.0000 0.55174  0.74833  0.04772  Biso   1.000  C
  C902     1.0000 0.04928  0.24878  0.43703  Biso   1.000  C
  C903     1.0000 0.92175  0.25079  0.93949  Biso   1.000  C
  C904     1.0000 0.41929  0.74632  0.55018  Biso   1.000  C
  C905     1.0000 0.73574  0.55267  0.42738  Biso   1.000  C
  C906     1.0000 0.23529  0.94198  0.92984  Biso   1.000  C
  C907     1.0000 0.23328  0.44444  0.05737  Biso   1.000  C
  C908     1.0000 0.73775  0.05513  0.55983  Biso   1.000  C
  C909     1.0000 0.93140  0.93233  0.24338  Biso   1.000  C
  C910     1.0000 0.54209  0.43479  0.74383  Biso   1.000  C
  C911     1.0000 0.03963  0.56232  0.74584  Biso   1.000  C
  C912     1.0000 0.42893  0.06478  0.24137  Biso   1.000  C
  C913     1.0000 0.91270  0.74321  0.46818  Biso   1.000  C
  C914     1.0000 0.41024  0.25391  0.01657  Biso   1.000  C
  C915     1.0000 0.56078  0.24567  0.51903  Biso   1.000  C
  C916     1.0000 0.05832  0.75145  0.97064  Biso   1.000  C
  C917     1.0000 0.74086  0.97313  0.06642  Biso   1.000  C
  C918     1.0000 0.23016  0.52152  0.56888  Biso   1.000  C
  C919     1.0000 0.23840  0.02398  0.41834  Biso   1.000  C
  C920     1.0000 0.73262  0.47559  0.92080  Biso   1.000  C
  C921     1.0000 0.51094  0.57137  0.23826  Biso   1.000  C
  C922     1.0000 0.96255  0.07383  0.74896  Biso   1.000  C
  C923     1.0000 0.46009  0.92329  0.74072  Biso   1.000  C
  C924     1.0000 0.00848  0.42575  0.24650  Biso   1.000  C
  C925     1.0000 0.41024  0.24567  0.97064  Biso   1.000  C
  C926     1.0000 0.91270  0.75145  0.51903  Biso   1.000  C
  C927     1.0000 0.05832  0.74321  0.01657  Biso   1.000  C
  C928     1.0000 0.56078  0.25391  0.46818  Biso   1.000  C
  C929     1.0000 0.23840  0.47559  0.56888  Biso   1.000  C
  C930     1.0000 0.73262  0.02398  0.06642  Biso   1.000  C
  C931     1.0000 0.74086  0.52152  0.92080  Biso   1.000  C
  C932     1.0000 0.23016  0.97313  0.41834  Biso   1.000  C
  C933     1.0000 0.00848  0.07383  0.74072  Biso   1.000  C
  C934     1.0000 0.46009  0.57137  0.24650  Biso   1.000  C
  C935     1.0000 0.96255  0.42575  0.23826  Biso   1.000  C
  C936     1.0000 0.51094  0.92329  0.74896  Biso   1.000  C
  C937     1.0000 0.05832  0.25391  0.51903  Biso   1.000  C
  C938     1.0000 0.56078  0.74321  0.97064  Biso   1.000  C
  C939     1.0000 0.41024  0.75145  0.46818  Biso   1.000  C
  C940     1.0000 0.91270  0.24567  0.01657  Biso   1.000  C
  C941     1.0000 0.23016  0.02398  0.92080  Biso   1.000  C
  C942     1.0000 0.74086  0.47559  0.41834  Biso   1.000  C
  C943     1.0000 0.73262  0.97313  0.56888  Biso   1.000  C
  C944     1.0000 0.23840  0.52152  0.06642  Biso   1.000  C
  C945     1.0000 0.46009  0.42575  0.74896  Biso   1.000  C
  C946     1.0000 0.00848  0.92329  0.23826  Biso   1.000  C
  C947     1.0000 0.51094  0.07383  0.24650  Biso   1.000  C
  C948     1.0000 0.96255  0.57137  0.74072  Biso   1.000  C
  C949     1.0000 0.56078  0.75145  0.01657  Biso   1.000  C
  C950     1.0000 0.05832  0.24567  0.46818  Biso   1.000  C
  C951     1.0000 0.91270  0.25391  0.97064  Biso   1.000  C
  C952     1.0000 0.41024  0.74321  0.51903  Biso   1.000  C
  C953     1.0000 0.73262  0.52152  0.41834  Biso   1.000  C
  C954     1.0000 0.23840  0.97313  0.92080  Biso   1.000  C
  C955     1.0000 0.23016  0.47559  0.06642  Biso   1.000  C
  C956     1.0000 0.74086  0.02398  0.56888  Biso   1.000  C
  C957     1.0000 0.96255  0.92329  0.24650  Biso   1.000  C
  C958     1.0000 0.51094  0.42575  0.74072  Biso   1.000  C
  C959     1.0000 0.00848  0.57137  0.74896  Biso   1.000  C
  C960     1.0000 0.46009  0.07383  0.23826  Biso   1.000  C
  C961     1.0000 0.85995  0.68814  0.35845  Biso   1.000  C
  C962     1.0000 0.35748  0.30898  0.12631  Biso   1.000  C
  C963     1.0000 0.61354  0.19060  0.62877  Biso   1.000  C
  C964     1.0000 0.11108  0.80652  0.86091  Biso   1.000  C
  C965     1.0000 0.79593  0.86340  0.11917  Biso   1.000  C
  C966     1.0000 0.17509  0.63126  0.62163  Biso   1.000  C
  C967     1.0000 0.29347  0.13372  0.36558  Biso   1.000  C
  C968     1.0000 0.67755  0.36586  0.86804  Biso   1.000  C
  C969     1.0000 0.62067  0.62412  0.18319  Biso   1.000  C
  C970     1.0000 0.85281  0.12658  0.80403  Biso   1.000  C
  C971     1.0000 0.35035  0.87053  0.68565  Biso   1.000  C
  C972     1.0000 0.11821  0.37299  0.30157  Biso   1.000  C
  C973     1.0000 0.35748  0.19060  0.86091  Biso   1.000  C
  C974     1.0000 0.85995  0.80652  0.62877  Biso   1.000  C
  C975     1.0000 0.11108  0.68814  0.12631  Biso   1.000  C
  C976     1.0000 0.61354  0.30898  0.35845  Biso   1.000  C
  C977     1.0000 0.29347  0.36586  0.62163  Biso   1.000  C
  C978     1.0000 0.67755  0.13372  0.11917  Biso   1.000  C
  C979     1.0000 0.79593  0.63126  0.86804  Biso   1.000  C
  C980     1.0000 0.17509  0.86340  0.36558  Biso   1.000  C
  C981     1.0000 0.11821  0.12658  0.68565  Biso   1.000  C
  C982     1.0000 0.35035  0.62412  0.30157  Biso   1.000  C
  C983     1.0000 0.85281  0.37299  0.18319  Biso   1.000  C
  C984     1.0000 0.62067  0.87053  0.80403  Biso   1.000  C
  C985     1.0000 0.11108  0.30898  0.62877  Biso   1.000  C
  C986     1.0000 0.61354  0.68814  0.86091  Biso   1.000  C
  C987     1.0000 0.35748  0.80652  0.35845  Biso   1.000  C
  C988     1.0000 0.85995  0.19060  0.12631  Biso   1.000  C
  C989     1.0000 0.17509  0.13372  0.86804  Biso   1.000  C
  C990     1.0000 0.79593  0.36586  0.36558  Biso   1.000  C
  C991     1.0000 0.67755  0.86340  0.62163  Biso   1.000  C
  C992     1.0000 0.29347  0.63126  0.11917  Biso   1.000  C
  C993     1.0000 0.35035  0.37299  0.80403  Biso   1.000  C
  C994     1.0000 0.11821  0.87053  0.18319  Biso   1.000  C
  C995     1.0000 0.62067  0.12658  0.30157  Biso   1.000  C
  C996     1.0000 0.85281  0.62412  0.68565  Biso   1.000  C
  C997     1.0000 0.61354  0.80652  0.12631  Biso   1.000  C
  C998     1.0000 0.11108  0.19060  0.35845  Biso   1.000  C
  C999     1.0000 0.85995  0.30898  0.86091  Biso   1.000  C
  C1000    1.0000 0.35748  0.68814  0.62877  Biso   1.000  C
  C1001    1.0000 0.67755  0.63126  0.36558  Biso   1.000  C
  C1002    1.0000 0.29347  0.86340  0.86804  Biso   1.000  C
  C1003    1.0000 0.17509  0.36586  0.11917  Biso   1.000  C
  C1004    1.0000 0.79593  0.13372  0.62163  Biso   1.000  C
  C1005    1.0000 0.85281  0.87053  0.30157  Biso   1.000  C
  C1006    1.0000 0.62067  0.37299  0.68565  Biso   1.000  C
  C1007    1.0000 0.11821  0.62412  0.80403  Biso   1.000  C
  C1008    1.0000 0.35035  0.12658  0.18319  Biso   1.000  C
  C1009    1.0000 0.95290  0.74341  0.42728  Biso   1.000  C
  C1010    1.0000 0.45044  0.25371  0.05747  Biso   1.000  C
  C1011    1.0000 0.52058  0.24587  0.55993  Biso   1.000  C
  C1012    1.0000 0.01812  0.75125  0.92974  Biso   1.000  C
  C1013    1.0000 0.74066  0.93223  0.02622  Biso   1.000  C
  C1014    1.0000 0.23036  0.56242  0.52868  Biso   1.000  C
  C1015    1.0000 0.23820  0.06488  0.45854  Biso   1.000  C
  C1016    1.0000 0.73282  0.43469  0.96100  Biso   1.000  C
  C1017    1.0000 0.55184  0.53117  0.23846  Biso   1.000  C
  C1018    1.0000 0.92165  0.03363  0.74876  Biso   1.000  C
  C1019    1.0000 0.41919  0.96349  0.74092  Biso   1.000  C
  C1020    1.0000 0.04938  0.46595  0.24630  Biso   1.000  C
  C1021    1.0000 0.45044  0.24587  0.92974  Biso   1.000  C
  C1022    1.0000 0.95290  0.75125  0.55993  Biso   1.000  C
  C1023    1.0000 0.01812  0.74341  0.05747  Biso   1.000  C
  C1024    1.0000 0.52058  0.25371  0.42728  Biso   1.000  C
  C1025    1.0000 0.23820  0.43469  0.52868  Biso   1.000  C
  C1026    1.0000 0.73282  0.06488  0.02622  Biso   1.000  C
  C1027    1.0000 0.74066  0.56242  0.96100  Biso   1.000  C
  C1028    1.0000 0.23036  0.93223  0.45854  Biso   1.000  C
  C1029    1.0000 0.04938  0.03363  0.74092  Biso   1.000  C
  C1030    1.0000 0.41919  0.53117  0.24630  Biso   1.000  C
  C1031    1.0000 0.92165  0.46595  0.23846  Biso   1.000  C
  C1032    1.0000 0.55184  0.96349  0.74876  Biso   1.000  C
  C1033    1.0000 0.01812  0.25371  0.55993  Biso   1.000  C
  C1034    1.0000 0.52058  0.74341  0.92974  Biso   1.000  C
  C1035    1.0000 0.45044  0.75125  0.42728  Biso   1.000  C
  C1036    1.0000 0.95290  0.24587  0.05747  Biso   1.000  C
  C1037    1.0000 0.23036  0.06488  0.96100  Biso   1.000  C
  C1038    1.0000 0.74066  0.43469  0.45854  Biso   1.000  C
  C1039    1.0000 0.73282  0.93223  0.52868  Biso   1.000  C
  C1040    1.0000 0.23820  0.56242  0.02622  Biso   1.000  C
  C1041    1.0000 0.41919  0.46595  0.74876  Biso   1.000  C
  C1042    1.0000 0.04938  0.96349  0.23846  Biso   1.000  C
  C1043    1.0000 0.55184  0.03363  0.24630  Biso   1.000  C
  C1044    1.0000 0.92165  0.53117  0.74092  Biso   1.000  C
  C1045    1.0000 0.52058  0.75125  0.05747  Biso   1.000  C
  C1046    1.0000 0.01812  0.24587  0.42728  Biso   1.000  C
  C1047    1.0000 0.95290  0.25371  0.92974  Biso   1.000  C
  C1048    1.0000 0.45044  0.74341  0.55993  Biso   1.000  C
  C1049    1.0000 0.73282  0.56242  0.45854  Biso   1.000  C
  C1050    1.0000 0.23820  0.93223  0.96100  Biso   1.000  C
  C1051    1.0000 0.23036  0.43469  0.02622  Biso   1.000  C
  C1052    1.0000 0.74066  0.06488  0.52868  Biso   1.000  C
  C1053    1.0000 0.92165  0.96349  0.24630  Biso   1.000  C
  C1054    1.0000 0.55184  0.46595  0.74092  Biso   1.000  C
  C1055    1.0000 0.04938  0.53117  0.74876  Biso   1.000  C
  C1056    1.0000 0.41919  0.03363  0.23846  Biso   1.000  C
  C1057    1.0000 0.99129  0.74471  0.39492  Biso   1.000  C
  C1058    1.0000 0.49375  0.25240  0.08983  Biso   1.000  C
  C1059    1.0000 0.47727  0.24718  0.59229  Biso   1.000  C
  C1060    1.0000 0.97973  0.74994  0.89739  Biso   1.000  C
  C1061    1.0000 0.73936  0.89987  0.98783  Biso   1.000  C
  C1062    1.0000 0.23167  0.59478  0.48537  Biso   1.000  C
  C1063    1.0000 0.23689  0.09724  0.50185  Biso   1.000  C
  C1064    1.0000 0.73413  0.40234  0.99939  Biso   1.000  C
  C1065    1.0000 0.58420  0.49278  0.23976  Biso   1.000  C
  C1066    1.0000 0.88929  0.99032  0.74745  Biso   1.000  C
  C1067    1.0000 0.38683  0.00680  0.74223  Biso   1.000  C
  C1068    1.0000 0.08173  0.50434  0.24499  Biso   1.000  C
  C1069    1.0000 0.49375  0.24718  0.89739  Biso   1.000  C
  C1070    1.0000 0.99129  0.74994  0.59229  Biso   1.000  C
  C1071    1.0000 0.97973  0.74471  0.08983  Biso   1.000  C
  C1072    1.0000 0.47727  0.25240  0.39492  Biso   1.000  C
  C1073    1.0000 0.23689  0.40234  0.48537  Biso   1.000  C
  C1074    1.0000 0.73413  0.09724  0.98783  Biso   1.000  C
  C1075    1.0000 0.73936  0.59478  0.99939  Biso   1.000  C
  C1076    1.0000 0.23167  0.89987  0.50185  Biso   1.000  C
  C1077    1.0000 0.08173  0.99032  0.74223  Biso   1.000  C
  C1078    1.0000 0.38683  0.49278  0.24499  Biso   1.000  C
  C1079    1.0000 0.88929  0.50434  0.23976  Biso   1.000  C
  C1080    1.0000 0.58420  0.00680  0.74745  Biso   1.000  C
  C1081    1.0000 0.97973  0.25240  0.59229  Biso   1.000  C
  C1082    1.0000 0.47727  0.74471  0.89739  Biso   1.000  C
  C1083    1.0000 0.49375  0.74994  0.39492  Biso   1.000  C
  C1084    1.0000 0.99129  0.24718  0.08983  Biso   1.000  C
  C1085    1.0000 0.23167  0.09724  0.99939  Biso   1.000  C
  C1086    1.0000 0.73936  0.40234  0.50185  Biso   1.000  C
  C1087    1.0000 0.73413  0.89987  0.48537  Biso   1.000  C
  C1088    1.0000 0.23689  0.59478  0.98783  Biso   1.000  C
  C1089    1.0000 0.38683  0.50434  0.74745  Biso   1.000  C
  C1090    1.0000 0.08173  0.00680  0.23976  Biso   1.000  C
  C1091    1.0000 0.58420  0.99032  0.24499  Biso   1.000  C
  C1092    1.0000 0.88929  0.49278  0.74223  Biso   1.000  C
  C1093    1.0000 0.47727  0.74994  0.08983  Biso   1.000  C
  C1094    1.0000 0.97973  0.24718  0.39492  Biso   1.000  C
  C1095    1.0000 0.99129  0.25240  0.89739  Biso   1.000  C
  C1096    1.0000 0.49375  0.74471  0.59229  Biso   1.000  C
  C1097    1.0000 0.73413  0.59478  0.50185  Biso   1.000  C
  C1098    1.0000 0.23689  0.89987  0.99939  Biso   1.000  C
  C1099    1.0000 0.23167  0.40234  0.98783  Biso   1.000  C
  C1100    1.0000 0.73936  0.09724  0.48537  Biso   1.000  C
  C1101    1.0000 0.88929  0.00680  0.24499  Biso   1.000  C
  C1102    1.0000 0.58420  0.50434  0.74223  Biso   1.000  C
  C1103    1.0000 0.08173  0.49278  0.74745  Biso   1.000  C
  C1104    1.0000 0.38683  0.99032  0.23976  Biso   1.000  C
  H961     1.0000 0.00496  0.74572  0.37744  Biso   1.000  H
  H962     1.0000 0.50742  0.25140  0.10732  Biso   1.000  H
  H963     1.0000 0.46360  0.24818  0.60978  Biso   1.000  H
  H964     1.0000 0.96607  0.74894  0.87990  Biso   1.000  H
  H965     1.0000 0.73835  0.88239  0.97416  Biso   1.000  H
  H966     1.0000 0.23267  0.61227  0.47170  Biso   1.000  H
  H967     1.0000 0.23589  0.11473  0.51551  Biso   1.000  H
  H968     1.0000 0.73513  0.38485  0.01305  Biso   1.000  H
  H969     1.0000 0.60168  0.47911  0.24077  Biso   1.000  H
  H970     1.0000 0.87180  0.97665  0.74645  Biso   1.000  H
  H971     1.0000 0.36934  0.02047  0.74323  Biso   1.000  H
  H972     1.0000 0.09922  0.51800  0.24398  Biso   1.000  H
  H973     1.0000 0.50742  0.24818  0.87990  Biso   1.000  H
  H974     1.0000 0.00496  0.74894  0.60978  Biso   1.000  H
  H975     1.0000 0.96607  0.74572  0.10732  Biso   1.000  H
  H976     1.0000 0.46360  0.25140  0.37744  Biso   1.000  H
  H977     1.0000 0.23589  0.38485  0.47170  Biso   1.000  H
  H978     1.0000 0.73513  0.11473  0.97416  Biso   1.000  H
  H979     1.0000 0.73835  0.61227  0.01305  Biso   1.000  H
  H980     1.0000 0.23267  0.88239  0.51551  Biso   1.000  H
  H981     1.0000 0.09922  0.97665  0.74323  Biso   1.000  H
  H982     1.0000 0.36934  0.47911  0.24399  Biso   1.000  H
  H983     1.0000 0.87180  0.51800  0.24077  Biso   1.000  H
  H984     1.0000 0.60168  0.02047  0.74645  Biso   1.000  H
  H985     1.0000 0.96607  0.25140  0.60978  Biso   1.000  H
  H986     1.0000 0.46360  0.74572  0.87990  Biso   1.000  H
  H987     1.0000 0.50742  0.74894  0.37744  Biso   1.000  H
  H988     1.0000 0.00496  0.24818  0.10732  Biso   1.000  H
  H989     1.0000 0.23267  0.11473  0.01305  Biso   1.000  H
  H990     1.0000 0.73835  0.38485  0.51551  Biso   1.000  H
  H991     1.0000 0.73513  0.88239  0.47170  Biso   1.000  H
  H992     1.0000 0.23589  0.61227  0.97416  Biso   1.000  H
  H993     1.0000 0.36934  0.51800  0.74645  Biso   1.000  H
  H994     1.0000 0.09922  0.02047  0.24077  Biso   1.000  H
  H995     1.0000 0.60168  0.97665  0.24398  Biso   1.000  H
  H996     1.0000 0.87180  0.47911  0.74323  Biso   1.000  H
  H997     1.0000 0.46360  0.74894  0.10732  Biso   1.000  H
  H998     1.0000 0.96607  0.24818  0.37744  Biso   1.000  H
  H999     1.0000 0.00496  0.25140  0.87990  Biso   1.000  H
  H1000    1.0000 0.50742  0.74572  0.60978  Biso   1.000  H
  H1001    1.0000 0.73513  0.61227  0.51551  Biso   1.000  H
  H1002    1.0000 0.23589  0.88239  0.01305  Biso   1.000  H
  H1003    1.0000 0.23267  0.38485  0.97416  Biso   1.000  H
  H1004    1.0000 0.73835  0.11473  0.47170  Biso   1.000  H
  H1005    1.0000 0.87180  0.02047  0.24398  Biso   1.000  H
  H1006    1.0000 0.60168  0.51800  0.74323  Biso   1.000  H
  H1007    1.0000 0.09922  0.47911  0.74645  Biso   1.000  H
  H1008    1.0000 0.36934  0.97665  0.24077  Biso   1.000  H
  C1105    1.0000 0.00013  0.74441  0.42799  Biso   1.000  C
  C1106    1.0000 0.50260  0.25270  0.05677  Biso   1.000  C
  C1107    1.0000 0.46843  0.24687  0.55923  Biso   1.000  C
  C1108    1.0000 0.97089  0.75024  0.93045  Biso   1.000  C
  C1109    1.0000 0.73966  0.93294  0.97898  Biso   1.000  C
  C1110    1.0000 0.23137  0.56172  0.47652  Biso   1.000  C
  C1111    1.0000 0.23720  0.06418  0.51069  Biso   1.000  C
  C1112    1.0000 0.73383  0.43540  0.00823  Biso   1.000  C
  C1113    1.0000 0.55113  0.48393  0.23946  Biso   1.000  C
  C1114    1.0000 0.92235  0.98147  0.74775  Biso   1.000  C
  C1115    1.0000 0.41989  0.01564  0.74192  Biso   1.000  C
  C1116    1.0000 0.04867  0.51318  0.24529  Biso   1.000  C
  C1117    1.0000 0.50260  0.24687  0.93045  Biso   1.000  C
  C1118    1.0000 0.00013  0.75024  0.55923  Biso   1.000  C
  C1119    1.0000 0.97089  0.74441  0.05677  Biso   1.000  C
  C1120    1.0000 0.46843  0.25270  0.42799  Biso   1.000  C
  C1121    1.0000 0.23720  0.43540  0.47652  Biso   1.000  C
  C1122    1.0000 0.73383  0.06418  0.97898  Biso   1.000  C
  C1123    1.0000 0.73966  0.56172  0.00823  Biso   1.000  C
  C1124    1.0000 0.23137  0.93294  0.51069  Biso   1.000  C
  C1125    1.0000 0.04867  0.98147  0.74192  Biso   1.000  C
  C1126    1.0000 0.41989  0.48393  0.24529  Biso   1.000  C
  C1127    1.0000 0.92235  0.51318  0.23946  Biso   1.000  C
  C1128    1.0000 0.55113  0.01564  0.74775  Biso   1.000  C
  C1129    1.0000 0.97089  0.25270  0.55923  Biso   1.000  C
  C1130    1.0000 0.46843  0.74441  0.93045  Biso   1.000  C
  C1131    1.0000 0.50260  0.75024  0.42799  Biso   1.000  C
  C1132    1.0000 0.00013  0.24687  0.05677  Biso   1.000  C
  C1133    1.0000 0.23137  0.06418  0.00823  Biso   1.000  C
  C1134    1.0000 0.73966  0.43540  0.51069  Biso   1.000  C
  C1135    1.0000 0.73383  0.93294  0.47652  Biso   1.000  C
  C1136    1.0000 0.23720  0.56172  0.97898  Biso   1.000  C
  C1137    1.0000 0.41989  0.51318  0.74775  Biso   1.000  C
  C1138    1.0000 0.04867  0.01564  0.23946  Biso   1.000  C
  C1139    1.0000 0.55113  0.98147  0.24529  Biso   1.000  C
  C1140    1.0000 0.92235  0.48393  0.74192  Biso   1.000  C
  C1141    1.0000 0.46843  0.75024  0.05677  Biso   1.000  C
  C1142    1.0000 0.97089  0.24687  0.42799  Biso   1.000  C
  C1143    1.0000 0.00013  0.25270  0.93045  Biso   1.000  C
  C1144    1.0000 0.50260  0.74441  0.55923  Biso   1.000  C
  C1145    1.0000 0.73383  0.56172  0.51069  Biso   1.000  C
  C1146    1.0000 0.23720  0.93294  0.00823  Biso   1.000  C
  C1147    1.0000 0.23137  0.43540  0.97898  Biso   1.000  C
  C1148    1.0000 0.73966  0.06418  0.47652  Biso   1.000  C
  C1149    1.0000 0.92235  0.01564  0.24529  Biso   1.000  C
  C1150    1.0000 0.55113  0.51318  0.74192  Biso   1.000  C
  C1151    1.0000 0.04867  0.48393  0.74775  Biso   1.000  C
  C1152    1.0000 0.41989  0.98147  0.23946  Biso   1.000  C
  C1153    1.0000 0.03068  0.74431  0.43773  Biso   1.000  C
  C1154    1.0000 0.53315  0.25280  0.04702  Biso   1.000  C
  C1155    1.0000 0.43788  0.24677  0.54948  Biso   1.000  C
  C1156    1.0000 0.94034  0.75034  0.94019  Biso   1.000  C
  C1157    1.0000 0.73976  0.94268  0.94844  Biso   1.000  C
  C1158    1.0000 0.23127  0.55197  0.44597  Biso   1.000  C
  C1159    1.0000 0.23730  0.05443  0.54124  Biso   1.000  C
  C1160    1.0000 0.73373  0.44514  0.03878  Biso   1.000  C
  C1161    1.0000 0.54139  0.45339  0.23936  Biso   1.000  C
  C1162    1.0000 0.93210  0.95092  0.74785  Biso   1.000  C
  C1163    1.0000 0.42964  0.04619  0.74182  Biso   1.000  C
  C1164    1.0000 0.03892  0.54373  0.24539  Biso   1.000  C
  C1165    1.0000 0.53315  0.24677  0.94019  Biso   1.000  C
  C1166    1.0000 0.03068  0.75034  0.54948  Biso   1.000  C
  C1167    1.0000 0.94034  0.74431  0.04702  Biso   1.000  C
  C1168    1.0000 0.43788  0.25280  0.43773  Biso   1.000  C
  C1169    1.0000 0.23730  0.44514  0.44597  Biso   1.000  C
  C1170    1.0000 0.73373  0.05443  0.94844  Biso   1.000  C
  C1171    1.0000 0.73976  0.55197  0.03878  Biso   1.000  C
  C1172    1.0000 0.23127  0.94268  0.54124  Biso   1.000  C
  C1173    1.0000 0.03892  0.95092  0.74182  Biso   1.000  C
  C1174    1.0000 0.42964  0.45339  0.24539  Biso   1.000  C
  C1175    1.0000 0.93210  0.54373  0.23936  Biso   1.000  C
  C1176    1.0000 0.54139  0.04619  0.74785  Biso   1.000  C
  C1177    1.0000 0.94034  0.25280  0.54948  Biso   1.000  C
  C1178    1.0000 0.43788  0.74431  0.94019  Biso   1.000  C
  C1179    1.0000 0.53315  0.75034  0.43773  Biso   1.000  C
  C1180    1.0000 0.03068  0.24677  0.04702  Biso   1.000  C
  C1181    1.0000 0.23127  0.05443  0.03878  Biso   1.000  C
  C1182    1.0000 0.73976  0.44514  0.54124  Biso   1.000  C
  C1183    1.0000 0.73373  0.94268  0.44597  Biso   1.000  C
  C1184    1.0000 0.23730  0.55197  0.94844  Biso   1.000  C
  C1185    1.0000 0.42964  0.54373  0.74785  Biso   1.000  C
  C1186    1.0000 0.03892  0.04619  0.23936  Biso   1.000  C
  C1187    1.0000 0.54139  0.95092  0.24539  Biso   1.000  C
  C1188    1.0000 0.93210  0.45339  0.74182  Biso   1.000  C
  C1189    1.0000 0.43788  0.75034  0.04702  Biso   1.000  C
  C1190    1.0000 0.94034  0.24677  0.43773  Biso   1.000  C
  C1191    1.0000 0.03068  0.25280  0.94019  Biso   1.000  C
  C1192    1.0000 0.53315  0.74431  0.54948  Biso   1.000  C
  C1193    1.0000 0.73373  0.55197  0.54124  Biso   1.000  C
  C1194    1.0000 0.23730  0.94268  0.03878  Biso   1.000  C
  C1195    1.0000 0.23127  0.44514  0.94844  Biso   1.000  C
  C1196    1.0000 0.73976  0.05443  0.44597  Biso   1.000  C
  C1197    1.0000 0.93210  0.04619  0.24539  Biso   1.000  C
  C1198    1.0000 0.54139  0.54373  0.74182  Biso   1.000  C
  C1199    1.0000 0.03892  0.45339  0.74785  Biso   1.000  C
  C1200    1.0000 0.42964  0.95092  0.23936  Biso   1.000  C
  C1201    1.0000 0.03983  0.74492  0.46798  Biso   1.000  C
  C1202    1.0000 0.54229  0.25220  0.01677  Biso   1.000  C
  C1203    1.0000 0.42873  0.24738  0.51923  Biso   1.000  C
  C1204    1.0000 0.93119  0.74974  0.97044  Biso   1.000  C
  C1205    1.0000 0.73915  0.97293  0.93929  Biso   1.000  C
  C1206    1.0000 0.23187  0.52172  0.43683  Biso   1.000  C
  C1207    1.0000 0.23669  0.02418  0.55039  Biso   1.000  C
  C1208    1.0000 0.73433  0.47539  0.04792  Biso   1.000  C
  C1209    1.0000 0.51114  0.44424  0.23997  Biso   1.000  C
  C1210    1.0000 0.96235  0.94178  0.74725  Biso   1.000  C
  C1211    1.0000 0.45989  0.05534  0.74243  Biso   1.000  C
  C1212    1.0000 0.00868  0.55287  0.24479  Biso   1.000  C
  C1213    1.0000 0.54229  0.24738  0.97044  Biso   1.000  C
  C1214    1.0000 0.03983  0.74974  0.51923  Biso   1.000  C
  C1215    1.0000 0.93119  0.74492  0.01677  Biso   1.000  C
  C1216    1.0000 0.42873  0.25220  0.46798  Biso   1.000  C
  C1217    1.0000 0.23669  0.47539  0.43683  Biso   1.000  C
  C1218    1.0000 0.73433  0.02418  0.93929  Biso   1.000  C
  C1219    1.0000 0.73915  0.52172  0.04792  Biso   1.000  C
  C1220    1.0000 0.23187  0.97293  0.55039  Biso   1.000  C
  C1221    1.0000 0.00868  0.94178  0.74243  Biso   1.000  C
  C1222    1.0000 0.45989  0.44424  0.24479  Biso   1.000  C
  C1223    1.0000 0.96235  0.55287  0.23997  Biso   1.000  C
  C1224    1.0000 0.51114  0.05534  0.74725  Biso   1.000  C
  C1225    1.0000 0.93119  0.25220  0.51923  Biso   1.000  C
  C1226    1.0000 0.42873  0.74492  0.97044  Biso   1.000  C
  C1227    1.0000 0.54229  0.74974  0.46798  Biso   1.000  C
  C1228    1.0000 0.03983  0.24738  0.01677  Biso   1.000  C
  C1229    1.0000 0.23187  0.02418  0.04792  Biso   1.000  C
  C1230    1.0000 0.73915  0.47539  0.55039  Biso   1.000  C
  C1231    1.0000 0.73433  0.97293  0.43683  Biso   1.000  C
  C1232    1.0000 0.23669  0.52172  0.93929  Biso   1.000  C
  C1233    1.0000 0.45989  0.55287  0.74725  Biso   1.000  C
  C1234    1.0000 0.00868  0.05534  0.23997  Biso   1.000  C
  C1235    1.0000 0.51114  0.94178  0.24479  Biso   1.000  C
  C1236    1.0000 0.96235  0.44424  0.74243  Biso   1.000  C
  C1237    1.0000 0.42873  0.74974  0.01677  Biso   1.000  C
  C1238    1.0000 0.93119  0.24738  0.46798  Biso   1.000  C
  C1239    1.0000 0.03983  0.25220  0.97044  Biso   1.000  C
  C1240    1.0000 0.54229  0.74492  0.51923  Biso   1.000  C
  C1241    1.0000 0.73433  0.52172  0.55039  Biso   1.000  C
  C1242    1.0000 0.23669  0.97293  0.04792  Biso   1.000  C
  C1243    1.0000 0.23187  0.47539  0.93929  Biso   1.000  C
  C1244    1.0000 0.73915  0.02418  0.43683  Biso   1.000  C
  C1245    1.0000 0.96235  0.05534  0.24479  Biso   1.000  C
  C1246    1.0000 0.51114  0.55287  0.74243  Biso   1.000  C
  C1247    1.0000 0.00868  0.44424  0.74725  Biso   1.000  C
  C1248    1.0000 0.45989  0.94178  0.23997  Biso   1.000  C
  C1249    1.0000 0.06636  0.71517  0.40437  Biso   1.000  C
  C1250    1.0000 0.56882  0.28195  0.08038  Biso   1.000  C
  C1251    1.0000 0.40220  0.21763  0.58284  Biso   1.000  C
  C1252    1.0000 0.90466  0.77948  0.90683  Biso   1.000  C
  C1253    1.0000 0.76890  0.90932  0.91276  Biso   1.000  C
  C1254    1.0000 0.20212  0.58533  0.41030  Biso   1.000  C
  C1255    1.0000 0.26644  0.08779  0.57692  Biso   1.000  C
  C1256    1.0000 0.70458  0.41178  0.07445  Biso   1.000  C
  C1257    1.0000 0.57475  0.41771  0.21022  Biso   1.000  C
  C1258    1.0000 0.89874  0.91525  0.77700  Biso   1.000  C
  C1259    1.0000 0.39627  0.08187  0.71268  Biso   1.000  C
  C1260    1.0000 0.07229  0.57940  0.27453  Biso   1.000  C
  C1261    1.0000 0.56882  0.21763  0.90683  Biso   1.000  C
  C1262    1.0000 0.06636  0.77948  0.58284  Biso   1.000  C
  C1263    1.0000 0.90466  0.71517  0.08038  Biso   1.000  C
  C1264    1.0000 0.40220  0.28195  0.40437  Biso   1.000  C
  C1265    1.0000 0.26644  0.41178  0.41030  Biso   1.000  C
  C1266    1.0000 0.70458  0.08779  0.91276  Biso   1.000  C
  C1267    1.0000 0.76890  0.58533  0.07445  Biso   1.000  C
  C1268    1.0000 0.20212  0.90932  0.57692  Biso   1.000  C
  C1269    1.0000 0.07229  0.91525  0.71268  Biso   1.000  C
  C1270    1.0000 0.39627  0.41771  0.27453  Biso   1.000  C
  C1271    1.0000 0.89874  0.57940  0.21022  Biso   1.000  C
  C1272    1.0000 0.57475  0.08187  0.77700  Biso   1.000  C
  C1273    1.0000 0.90466  0.28195  0.58284  Biso   1.000  C
  C1274    1.0000 0.40220  0.71517  0.90683  Biso   1.000  C
  C1275    1.0000 0.56882  0.77948  0.40437  Biso   1.000  C
  C1276    1.0000 0.06636  0.21763  0.08038  Biso   1.000  C
  C1277    1.0000 0.20212  0.08779  0.07445  Biso   1.000  C
  C1278    1.0000 0.76890  0.41178  0.57692  Biso   1.000  C
  C1279    1.0000 0.70458  0.90932  0.41030  Biso   1.000  C
  C1280    1.0000 0.26644  0.58533  0.91276  Biso   1.000  C
  C1281    1.0000 0.39627  0.57940  0.77700  Biso   1.000  C
  C1282    1.0000 0.07229  0.08187  0.21022  Biso   1.000  C
  C1283    1.0000 0.57475  0.91525  0.27453  Biso   1.000  C
  C1284    1.0000 0.89874  0.41771  0.71268  Biso   1.000  C
  C1285    1.0000 0.40220  0.77948  0.08038  Biso   1.000  C
  C1286    1.0000 0.90466  0.21763  0.40437  Biso   1.000  C
  C1287    1.0000 0.06636  0.28195  0.90683  Biso   1.000  C
  C1288    1.0000 0.56882  0.71517  0.58284  Biso   1.000  C
  C1289    1.0000 0.70458  0.58533  0.57692  Biso   1.000  C
  C1290    1.0000 0.26644  0.90932  0.07445  Biso   1.000  C
  C1291    1.0000 0.20212  0.41178  0.91276  Biso   1.000  C
  C1292    1.0000 0.76890  0.08779  0.41030  Biso   1.000  C
  C1293    1.0000 0.89874  0.08187  0.27453  Biso   1.000  C
  C1294    1.0000 0.57475  0.57940  0.71268  Biso   1.000  C
  C1295    1.0000 0.07229  0.41771  0.77700  Biso   1.000  C
  C1296    1.0000 0.39627  0.91525  0.21022  Biso   1.000  C
  H1009    1.0000 0.05782  0.69688  0.41352  Biso   1.000  H
  H1010    1.0000 0.56028  0.30024  0.07124  Biso   1.000  H
  H1011    1.0000 0.41075  0.19934  0.57370  Biso   1.000  H
  H1012    1.0000 0.91321  0.79777  0.91598  Biso   1.000  H
  H1013    1.0000 0.78719  0.91847  0.92130  Biso   1.000  H
  H1014    1.0000 0.18383  0.57619  0.41884  Biso   1.000  H
  H1015    1.0000 0.28473  0.07865  0.56837  Biso   1.000  H
  H1016    1.0000 0.68630  0.42093  0.06591  Biso   1.000  H
  H1017    1.0000 0.56560  0.42625  0.19193  Biso   1.000  H
  H1018    1.0000 0.90788  0.92379  0.79529  Biso   1.000  H
  H1019    1.0000 0.40542  0.07332  0.69439  Biso   1.000  H
  H1020    1.0000 0.06314  0.57086  0.29282  Biso   1.000  H
  H1021    1.0000 0.56028  0.19934  0.91598  Biso   1.000  H
  H1022    1.0000 0.05782  0.79777  0.57370  Biso   1.000  H
  H1023    1.0000 0.91321  0.69688  0.07124  Biso   1.000  H
  H1024    1.0000 0.41075  0.30024  0.41352  Biso   1.000  H
  H1025    1.0000 0.28473  0.42093  0.41884  Biso   1.000  H
  H1026    1.0000 0.68630  0.07865  0.92130  Biso   1.000  H
  H1027    1.0000 0.78719  0.57619  0.06591  Biso   1.000  H
  H1028    1.0000 0.18383  0.91847  0.56837  Biso   1.000  H
  H1029    1.0000 0.06314  0.92379  0.69439  Biso   1.000  H
  H1030    1.0000 0.40542  0.42625  0.29282  Biso   1.000  H
  H1031    1.0000 0.90788  0.57086  0.19193  Biso   1.000  H
  H1032    1.0000 0.56560  0.07332  0.79529  Biso   1.000  H
  H1033    1.0000 0.91321  0.30024  0.57370  Biso   1.000  H
  H1034    1.0000 0.41075  0.69688  0.91598  Biso   1.000  H
  H1035    1.0000 0.56028  0.79777  0.41352  Biso   1.000  H
  H1036    1.0000 0.05782  0.19934  0.07124  Biso   1.000  H
  H1037    1.0000 0.18383  0.07865  0.06591  Biso   1.000  H
  H1038    1.0000 0.78719  0.42093  0.56837  Biso   1.000  H
  H1039    1.0000 0.68630  0.91847  0.41884  Biso   1.000  H
  H1040    1.0000 0.28473  0.57619  0.92130  Biso   1.000  H
  H1041    1.0000 0.40542  0.57086  0.79529  Biso   1.000  H
  H1042    1.0000 0.06314  0.07332  0.19193  Biso   1.000  H
  H1043    1.0000 0.56560  0.92379  0.29282  Biso   1.000  H
  H1044    1.0000 0.90788  0.42625  0.69439  Biso   1.000  H
  H1045    1.0000 0.41075  0.79777  0.07124  Biso   1.000  H
  H1046    1.0000 0.91321  0.19934  0.41352  Biso   1.000  H
  H1047    1.0000 0.05782  0.30024  0.91598  Biso   1.000  H
  H1048    1.0000 0.56028  0.69688  0.57370  Biso   1.000  H
  H1049    1.0000 0.68630  0.57619  0.56837  Biso   1.000  H
  H1050    1.0000 0.28473  0.91847  0.06591  Biso   1.000  H
  H1051    1.0000 0.18383  0.42093  0.92130  Biso   1.000  H
  H1052    1.0000 0.78719  0.07865  0.41884  Biso   1.000  H
  H1053    1.0000 0.90788  0.07332  0.29282  Biso   1.000  H
  H1054    1.0000 0.56560  0.57086  0.69439  Biso   1.000  H
  H1055    1.0000 0.06314  0.42625  0.79529  Biso   1.000  H
  H1056    1.0000 0.40542  0.92379  0.19193  Biso   1.000  H
  C1297    1.0000 0.87964  0.74421  0.47763  Biso   1.000  C
  C1298    1.0000 0.37718  0.25290  0.00712  Biso   1.000  C
  C1299    1.0000 0.59384  0.24667  0.50959  Biso   1.000  C
  C1300    1.0000 0.09138  0.75044  0.98009  Biso   1.000  C
  C1301    1.0000 0.73986  0.98258  0.09948  Biso   1.000  C
  C1302    1.0000 0.23117  0.51208  0.60194  Biso   1.000  C
  C1303    1.0000 0.23740  0.01454  0.38528  Biso   1.000  C
  C1304    1.0000 0.73363  0.48504  0.88774  Biso   1.000  C
  C1305    1.0000 0.50149  0.60443  0.23926  Biso   1.000  C
  C1306    1.0000 0.97199  0.10689  0.74795  Biso   1.000  C
  C1307    1.0000 0.46953  0.89023  0.74172  Biso   1.000  C
  C1308    1.0000 0.99903  0.39269  0.24549  Biso   1.000  C
  C1309    1.0000 0.37718  0.24667  0.98009  Biso   1.000  C
  C1310    1.0000 0.87964  0.75044  0.50959  Biso   1.000  C
  C1311    1.0000 0.09138  0.74421  0.00712  Biso   1.000  C
  C1312    1.0000 0.59384  0.25290  0.47763  Biso   1.000  C
  C1313    1.0000 0.23740  0.48504  0.60194  Biso   1.000  C
  C1314    1.0000 0.73363  0.01454  0.09948  Biso   1.000  C
  C1315    1.0000 0.73986  0.51208  0.88774  Biso   1.000  C
  C1316    1.0000 0.23117  0.98258  0.38528  Biso   1.000  C
  C1317    1.0000 0.99903  0.10689  0.74172  Biso   1.000  C
  C1318    1.0000 0.46953  0.60443  0.24549  Biso   1.000  C
  C1319    1.0000 0.97199  0.39269  0.23926  Biso   1.000  C
  C1320    1.0000 0.50149  0.89023  0.74795  Biso   1.000  C
  C1321    1.0000 0.09138  0.25290  0.50959  Biso   1.000  C
  C1322    1.0000 0.59384  0.74421  0.98009  Biso   1.000  C
  C1323    1.0000 0.37718  0.75044  0.47763  Biso   1.000  C
  C1324    1.0000 0.87964  0.24667  0.00712  Biso   1.000  C
  C1325    1.0000 0.23117  0.01454  0.88774  Biso   1.000  C
  C1326    1.0000 0.73986  0.48504  0.38528  Biso   1.000  C
  C1327    1.0000 0.73363  0.98258  0.60194  Biso   1.000  C
  C1328    1.0000 0.23740  0.51208  0.09948  Biso   1.000  C
  C1329    1.0000 0.46953  0.39269  0.74795  Biso   1.000  C
  C1330    1.0000 0.99903  0.89023  0.23926  Biso   1.000  C
  C1331    1.0000 0.50149  0.10689  0.24549  Biso   1.000  C
  C1332    1.0000 0.97199  0.60443  0.74172  Biso   1.000  C
  C1333    1.0000 0.59384  0.75044  0.00712  Biso   1.000  C
  C1334    1.0000 0.09138  0.24667  0.47763  Biso   1.000  C
  C1335    1.0000 0.87964  0.25290  0.98009  Biso   1.000  C
  C1336    1.0000 0.37718  0.74421  0.50959  Biso   1.000  C
  C1337    1.0000 0.73363  0.51208  0.38528  Biso   1.000  C
  C1338    1.0000 0.23740  0.98258  0.88774  Biso   1.000  C
  C1339    1.0000 0.23117  0.48504  0.09948  Biso   1.000  C
  C1340    1.0000 0.73986  0.01454  0.60194  Biso   1.000  C
  C1341    1.0000 0.97199  0.89023  0.24549  Biso   1.000  C
  C1342    1.0000 0.50149  0.39269  0.74172  Biso   1.000  C
  C1343    1.0000 0.99903  0.60443  0.74795  Biso   1.000  C
  C1344    1.0000 0.46953  0.10689  0.23926  Biso   1.000  C
  H1057    1.0000 0.86196  0.74130  0.46467  Biso   1.000  H
  H1058    1.0000 0.35949  0.25582  0.02009  Biso   1.000  H
  H1059    1.0000 0.61153  0.24376  0.52255  Biso   1.000  H
  H1060    1.0000 0.10907  0.75336  0.96713  Biso   1.000  H
  H1061    1.0000 0.74277  0.96962  0.11716  Biso   1.000  H
  H1062    1.0000 0.22825  0.52504  0.61962  Biso   1.000  H
  H1063    1.0000 0.24031  0.02750  0.36759  Biso   1.000  H
  H1064    1.0000 0.73071  0.47208  0.87005  Biso   1.000  H
  H1065    1.0000 0.51445  0.62211  0.23635  Biso   1.000  H
  H1066    1.0000 0.95903  0.12457  0.75087  Biso   1.000  H
  H1067    1.0000 0.45657  0.87254  0.73881  Biso   1.000  H
  H1068    1.0000 0.01199  0.37500  0.24841  Biso   1.000  H
  H1069    1.0000 0.35949  0.24376  0.96713  Biso   1.000  H
  H1070    1.0000 0.86196  0.75336  0.52255  Biso   1.000  H
  H1071    1.0000 0.10907  0.74130  0.02009  Biso   1.000  H
  H1072    1.0000 0.61153  0.25582  0.46467  Biso   1.000  H
  H1073    1.0000 0.24031  0.47208  0.61962  Biso   1.000  H
  H1074    1.0000 0.73071  0.02750  0.11716  Biso   1.000  H
  H1075    1.0000 0.74277  0.52504  0.87005  Biso   1.000  H
  H1076    1.0000 0.22825  0.96962  0.36759  Biso   1.000  H
  H1077    1.0000 0.01199  0.12457  0.73881  Biso   1.000  H
  H1078    1.0000 0.45657  0.62211  0.24841  Biso   1.000  H
  H1079    1.0000 0.95903  0.37500  0.23635  Biso   1.000  H
  H1080    1.0000 0.51445  0.87254  0.75087  Biso   1.000  H
  H1081    1.0000 0.10907  0.25582  0.52255  Biso   1.000  H
  H1082    1.0000 0.61153  0.74130  0.96713  Biso   1.000  H
  H1083    1.0000 0.35949  0.75336  0.46467  Biso   1.000  H
  H1084    1.0000 0.86196  0.24376  0.02009  Biso   1.000  H
  H1085    1.0000 0.22825  0.02750  0.87005  Biso   1.000  H
  H1086    1.0000 0.74277  0.47208  0.36759  Biso   1.000  H
  H1087    1.0000 0.73071  0.96962  0.61962  Biso   1.000  H
  H1088    1.0000 0.24031  0.52504  0.11716  Biso   1.000  H
  H1089    1.0000 0.45657  0.37500  0.75087  Biso   1.000  H
  H1090    1.0000 0.01199  0.87254  0.23635  Biso   1.000  H
  H1091    1.0000 0.51445  0.12457  0.24841  Biso   1.000  H
  H1092    1.0000 0.95903  0.62211  0.73881  Biso   1.000  H
  H1093    1.0000 0.61153  0.75336  0.02009  Biso   1.000  H
  H1094    1.0000 0.10907  0.24376  0.46467  Biso   1.000  H
  H1095    1.0000 0.86196  0.25582  0.96713  Biso   1.000  H
  H1096    1.0000 0.35949  0.74130  0.52255  Biso   1.000  H
  H1097    1.0000 0.73071  0.52504  0.36759  Biso   1.000  H
  H1098    1.0000 0.24031  0.96962  0.87005  Biso   1.000  H
  H1099    1.0000 0.22825  0.47208  0.11716  Biso   1.000  H
  H1100    1.0000 0.74277  0.02750  0.61962  Biso   1.000  H
  H1101    1.0000 0.95903  0.87254  0.24841  Biso   1.000  H
  H1102    1.0000 0.51445  0.37500  0.73881  Biso   1.000  H
  H1103    1.0000 0.01199  0.62211  0.75087  Biso   1.000  H
  H1104    1.0000 0.45657  0.12457  0.23635  Biso   1.000  H
  C1345    1.0000 0.96295  0.74321  0.39412  Biso   1.000  C
  C1346    1.0000 0.46049  0.25391  0.09063  Biso   1.000  C
  C1347    1.0000 0.51053  0.24567  0.59309  Biso   1.000  C
  C1348    1.0000 0.00807  0.75145  0.89658  Biso   1.000  C
  C1349    1.0000 0.74086  0.89907  0.01617  Biso   1.000  C
  C1350    1.0000 0.23016  0.59558  0.51863  Biso   1.000  C
  C1351    1.0000 0.23840  0.09804  0.46859  Biso   1.000  C
  C1352    1.0000 0.73262  0.40153  0.97105  Biso   1.000  C
  C1353    1.0000 0.58500  0.52112  0.23826  Biso   1.000  C
  C1354    1.0000 0.88849  0.02358  0.74896  Biso   1.000  C
  C1355    1.0000 0.38602  0.97354  0.74072  Biso   1.000  C
  C1356    1.0000 0.08254  0.47600  0.24650  Biso   1.000  C
  C1357    1.0000 0.46049  0.24567  0.89658  Biso   1.000  C
  C1358    1.0000 0.96295  0.75145  0.59309  Biso   1.000  C
  C1359    1.0000 0.00807  0.74321  0.09063  Biso   1.000  C
  C1360    1.0000 0.51053  0.25391  0.39412  Biso   1.000  C
  C1361    1.0000 0.23840  0.40153  0.51863  Biso   1.000  C
  C1362    1.0000 0.73262  0.09804  0.01617  Biso   1.000  C
  C1363    1.0000 0.74086  0.59558  0.97105  Biso   1.000  C
  C1364    1.0000 0.23016  0.89907  0.46859  Biso   1.000  C
  C1365    1.0000 0.08254  0.02358  0.74072  Biso   1.000  C
  C1366    1.0000 0.38602  0.52112  0.24650  Biso   1.000  C
  C1367    1.0000 0.88849  0.47600  0.23826  Biso   1.000  C
  C1368    1.0000 0.58500  0.97354  0.74896  Biso   1.000  C
  C1369    1.0000 0.00807  0.25391  0.59309  Biso   1.000  C
  C1370    1.0000 0.51053  0.74321  0.89658  Biso   1.000  C
  C1371    1.0000 0.46049  0.75145  0.39412  Biso   1.000  C
  C1372    1.0000 0.96295  0.24567  0.09063  Biso   1.000  C
  C1373    1.0000 0.23016  0.09804  0.97105  Biso   1.000  C
  C1374    1.0000 0.74086  0.40153  0.46858  Biso   1.000  C
  C1375    1.0000 0.73262  0.89907  0.51863  Biso   1.000  C
  C1376    1.0000 0.23840  0.59558  0.01617  Biso   1.000  C
  C1377    1.0000 0.38602  0.47600  0.74896  Biso   1.000  C
  C1378    1.0000 0.08254  0.97354  0.23826  Biso   1.000  C
  C1379    1.0000 0.58500  0.02358  0.24650  Biso   1.000  C
  C1380    1.0000 0.88849  0.52112  0.74072  Biso   1.000  C
  C1381    1.0000 0.51053  0.75145  0.09063  Biso   1.000  C
  C1382    1.0000 0.00807  0.24567  0.39412  Biso   1.000  C
  C1383    1.0000 0.96295  0.25391  0.89658  Biso   1.000  C
  C1384    1.0000 0.46049  0.74321  0.59309  Biso   1.000  C
  C1385    1.0000 0.73262  0.59558  0.46858  Biso   1.000  C
  C1386    1.0000 0.23840  0.89907  0.97105  Biso   1.000  C
  C1387    1.0000 0.23016  0.40153  0.01617  Biso   1.000  C
  C1388    1.0000 0.74086  0.09804  0.51863  Biso   1.000  C
  C1389    1.0000 0.88849  0.97354  0.24650  Biso   1.000  C
  C1390    1.0000 0.58500  0.47600  0.74072  Biso   1.000  C
  C1391    1.0000 0.08254  0.52112  0.74896  Biso   1.000  C
  C1392    1.0000 0.38602  0.02358  0.23826  Biso   1.000  C
  H1105    1.0000 0.94999  0.74220  0.37623  Biso   1.000  H
  H1106    1.0000 0.44753  0.25491  0.10852  Biso   1.000  H
  H1107    1.0000 0.52350  0.24466  0.61098  Biso   1.000  H
  H1108    1.0000 0.02104  0.75245  0.87869  Biso   1.000  H
  H1109    1.0000 0.74187  0.88118  0.02913  Biso   1.000  H
  H1110    1.0000 0.22916  0.61347  0.53159  Biso   1.000  H
  H1111    1.0000 0.23941  0.11593  0.45562  Biso   1.000  H
  H1112    1.0000 0.73162  0.38364  0.95808  Biso   1.000  H
  H1113    1.0000 0.60289  0.53408  0.23725  Biso   1.000  H
  H1114    1.0000 0.87060  0.03654  0.74996  Biso   1.000  H
  H1115    1.0000 0.36814  0.96057  0.73971  Biso   1.000  H
  H1116    1.0000 0.10043  0.46303  0.24750  Biso   1.000  H
  H1117    1.0000 0.44753  0.24466  0.87869  Biso   1.000  H
  H1118    1.0000 0.94999  0.75245  0.61098  Biso   1.000  H
  H1119    1.0000 0.02104  0.74220  0.10852  Biso   1.000  H
  H1120    1.0000 0.52350  0.25491  0.37623  Biso   1.000  H
  H1121    1.0000 0.23941  0.38364  0.53159  Biso   1.000  H
  H1122    1.0000 0.73162  0.11593  0.02913  Biso   1.000  H
  H1123    1.0000 0.74187  0.61347  0.95808  Biso   1.000  H
  H1124    1.0000 0.22916  0.88118  0.45562  Biso   1.000  H
  H1125    1.0000 0.10043  0.03654  0.73971  Biso   1.000  H
  H1126    1.0000 0.36814  0.53408  0.24750  Biso   1.000  H
  H1127    1.0000 0.87060  0.46303  0.23725  Biso   1.000  H
  H1128    1.0000 0.60289  0.96057  0.74996  Biso   1.000  H
  H1129    1.0000 0.02104  0.25491  0.61098  Biso   1.000  H
  H1130    1.0000 0.52350  0.74220  0.87869  Biso   1.000  H
  H1131    1.0000 0.44753  0.75245  0.37623  Biso   1.000  H
  H1132    1.0000 0.94999  0.24466  0.10852  Biso   1.000  H
  H1133    1.0000 0.22916  0.11593  0.95808  Biso   1.000  H
  H1134    1.0000 0.74187  0.38364  0.45562  Biso   1.000  H
  H1135    1.0000 0.73162  0.88118  0.53159  Biso   1.000  H
  H1136    1.0000 0.23941  0.61347  0.02913  Biso   1.000  H
  H1137    1.0000 0.36814  0.46303  0.74996  Biso   1.000  H
  H1138    1.0000 0.10043  0.96057  0.23725  Biso   1.000  H
  H1139    1.0000 0.60289  0.03654  0.24750  Biso   1.000  H
  H1140    1.0000 0.87060  0.53408  0.73971  Biso   1.000  H
  H1141    1.0000 0.52350  0.75245  0.10852  Biso   1.000  H
  H1142    1.0000 0.02104  0.24466  0.37623  Biso   1.000  H
  H1143    1.0000 0.94999  0.25491  0.87869  Biso   1.000  H
  H1144    1.0000 0.44753  0.74220  0.61098  Biso   1.000  H
  H1145    1.0000 0.73162  0.61347  0.45562  Biso   1.000  H
  H1146    1.0000 0.23941  0.88118  0.95808  Biso   1.000  H
  H1147    1.0000 0.22916  0.38364  0.02913  Biso   1.000  H
  H1148    1.0000 0.74187  0.11593  0.53159  Biso   1.000  H
  H1149    1.0000 0.87060  0.96057  0.24750  Biso   1.000  H
  H1150    1.0000 0.60289  0.46303  0.73971  Biso   1.000  H
  H1151    1.0000 0.10043  0.53408  0.74996  Biso   1.000  H
  H1152    1.0000 0.36814  0.03654  0.23725  Biso   1.000  H
  C1393    1.0000 0.05470  0.74411  0.41251  Biso   1.000  C
  C1394    1.0000 0.55716  0.25300  0.07224  Biso   1.000  C
  C1395    1.0000 0.41386  0.24657  0.57470  Biso   1.000  C
  C1396    1.0000 0.91632  0.75054  0.91497  Biso   1.000  C
  C1397    1.0000 0.73996  0.91746  0.92442  Biso   1.000  C
  C1398    1.0000 0.23107  0.57719  0.42196  Biso   1.000  C
  C1399    1.0000 0.23750  0.07965  0.56526  Biso   1.000  C
  C1400    1.0000 0.73353  0.41992  0.06280  Biso   1.000  C
  C1401    1.0000 0.56661  0.42937  0.23916  Biso   1.000  C
  C1402    1.0000 0.90688  0.92691  0.74805  Biso   1.000  C
  C1403    1.0000 0.40441  0.07021  0.74162  Biso   1.000  C
  C1404    1.0000 0.06415  0.56775  0.24559  Biso   1.000  C
  C1405    1.0000 0.55716  0.24657  0.91497  Biso   1.000  C
  C1406    1.0000 0.05470  0.75054  0.57470  Biso   1.000  C
  C1407    1.0000 0.91632  0.74411  0.07224  Biso   1.000  C
  C1408    1.0000 0.41386  0.25300  0.41251  Biso   1.000  C
  C1409    1.0000 0.23750  0.41992  0.42196  Biso   1.000  C
  C1410    1.0000 0.73353  0.07965  0.92442  Biso   1.000  C
  C1411    1.0000 0.73996  0.57719  0.06280  Biso   1.000  C
  C1412    1.0000 0.23107  0.91746  0.56526  Biso   1.000  C
  C1413    1.0000 0.06415  0.92691  0.74162  Biso   1.000  C
  C1414    1.0000 0.40441  0.42937  0.24559  Biso   1.000  C
  C1415    1.0000 0.90688  0.56775  0.23916  Biso   1.000  C
  C1416    1.0000 0.56661  0.07021  0.74805  Biso   1.000  C
  C1417    1.0000 0.91632  0.25300  0.57470  Biso   1.000  C
  C1418    1.0000 0.41386  0.74411  0.91497  Biso   1.000  C
  C1419    1.0000 0.55716  0.75054  0.41251  Biso   1.000  C
  C1420    1.0000 0.05470  0.24657  0.07224  Biso   1.000  C
  C1421    1.0000 0.23107  0.07965  0.06280  Biso   1.000  C
  C1422    1.0000 0.73996  0.41992  0.56526  Biso   1.000  C
  C1423    1.0000 0.73353  0.91746  0.42196  Biso   1.000  C
  C1424    1.0000 0.23750  0.57719  0.92442  Biso   1.000  C
  C1425    1.0000 0.40441  0.56775  0.74805  Biso   1.000  C
  C1426    1.0000 0.06415  0.07021  0.23916  Biso   1.000  C
  C1427    1.0000 0.56661  0.92691  0.24559  Biso   1.000  C
  C1428    1.0000 0.90688  0.42937  0.74162  Biso   1.000  C
  C1429    1.0000 0.41386  0.75054  0.07224  Biso   1.000  C
  C1430    1.0000 0.91632  0.24657  0.41251  Biso   1.000  C
  C1431    1.0000 0.05470  0.25300  0.91497  Biso   1.000  C
  C1432    1.0000 0.55716  0.74411  0.57470  Biso   1.000  C
  C1433    1.0000 0.73353  0.57719  0.56526  Biso   1.000  C
  C1434    1.0000 0.23750  0.91746  0.06280  Biso   1.000  C
  C1435    1.0000 0.23107  0.41992  0.92442  Biso   1.000  C
  C1436    1.0000 0.73996  0.07965  0.42196  Biso   1.000  C
  C1437    1.0000 0.90688  0.07021  0.24559  Biso   1.000  C
  C1438    1.0000 0.56661  0.56775  0.74162  Biso   1.000  C
  C1439    1.0000 0.06415  0.42937  0.74805  Biso   1.000  C
  C1440    1.0000 0.40441  0.92691  0.23916  Biso   1.000  C
  C1441    1.0000 0.07570  0.74592  0.47793  Biso   1.000  C
  C1442    1.0000 0.57817  0.25119  0.00682  Biso   1.000  C
  C1443    1.0000 0.39286  0.24838  0.50928  Biso   1.000  C
  C1444    1.0000 0.89532  0.74873  0.98039  Biso   1.000  C
  C1445    1.0000 0.73815  0.98288  0.90341  Biso   1.000  C
  C1446    1.0000 0.23287  0.51177  0.40095  Biso   1.000  C
  C1447    1.0000 0.23569  0.01423  0.58626  Biso   1.000  C
  C1448    1.0000 0.73534  0.48534  0.08380  Biso   1.000  C
  C1449    1.0000 0.50119  0.40836  0.24097  Biso   1.000  C
  C1450    1.0000 0.97230  0.90590  0.74624  Biso   1.000  C
  C1451    1.0000 0.46984  0.09121  0.74343  Biso   1.000  C
  C1452    1.0000 0.99873  0.58875  0.24378  Biso   1.000  C
  C1453    1.0000 0.57817  0.24838  0.98039  Biso   1.000  C
  C1454    1.0000 0.07570  0.74873  0.50928  Biso   1.000  C
  C1455    1.0000 0.89532  0.74592  0.00682  Biso   1.000  C
  C1456    1.0000 0.39286  0.25119  0.47793  Biso   1.000  C
  C1457    1.0000 0.23569  0.48534  0.40095  Biso   1.000  C
  C1458    1.0000 0.73534  0.01423  0.90341  Biso   1.000  C
  C1459    1.0000 0.73815  0.51177  0.08380  Biso   1.000  C
  C1460    1.0000 0.23287  0.98288  0.58626  Biso   1.000  C
  C1461    1.0000 0.99873  0.90590  0.74343  Biso   1.000  C
  C1462    1.0000 0.46984  0.40836  0.24378  Biso   1.000  C
  C1463    1.0000 0.97230  0.58875  0.24097  Biso   1.000  C
  C1464    1.0000 0.50119  0.09121  0.74624  Biso   1.000  C
  C1465    1.0000 0.89532  0.25119  0.50928  Biso   1.000  C
  C1466    1.0000 0.39286  0.74592  0.98039  Biso   1.000  C
  C1467    1.0000 0.57817  0.74873  0.47793  Biso   1.000  C
  C1468    1.0000 0.07570  0.24838  0.00682  Biso   1.000  C
  C1469    1.0000 0.23287  0.01423  0.08380  Biso   1.000  C
  C1470    1.0000 0.73815  0.48534  0.58626  Biso   1.000  C
  C1471    1.0000 0.73534  0.98288  0.40095  Biso   1.000  C
  C1472    1.0000 0.23569  0.51177  0.90341  Biso   1.000  C
  C1473    1.0000 0.46984  0.58875  0.74624  Biso   1.000  C
  C1474    1.0000 0.99873  0.09121  0.24097  Biso   1.000  C
  C1475    1.0000 0.50119  0.90590  0.24378  Biso   1.000  C
  C1476    1.0000 0.97230  0.40836  0.74343  Biso   1.000  C
  C1477    1.0000 0.39286  0.74873  0.00682  Biso   1.000  C
  C1478    1.0000 0.89532  0.24838  0.47793  Biso   1.000  C
  C1479    1.0000 0.07570  0.25119  0.98039  Biso   1.000  C
  C1480    1.0000 0.57817  0.74592  0.50928  Biso   1.000  C
  C1481    1.0000 0.73534  0.51177  0.58626  Biso   1.000  C
  C1482    1.0000 0.23569  0.98288  0.08380  Biso   1.000  C
  C1483    1.0000 0.23287  0.48534  0.90341  Biso   1.000  C
  C1484    1.0000 0.73815  0.01423  0.40095  Biso   1.000  C
  C1485    1.0000 0.97230  0.09121  0.24378  Biso   1.000  C
  C1486    1.0000 0.50119  0.58875  0.74343  Biso   1.000  C
  C1487    1.0000 0.99873  0.40836  0.74624  Biso   1.000  C
  C1488    1.0000 0.46984  0.90590  0.24097  Biso   1.000  C
  H1153    1.0000 0.09339  0.74482  0.46457  Biso   1.000  H
  H1154    1.0000 0.59585  0.25230  0.02019  Biso   1.000  H
  H1155    1.0000 0.37517  0.24728  0.52265  Biso   1.000  H
  H1156    1.0000 0.87763  0.74984  0.96703  Biso   1.000  H
  H1157    1.0000 0.73925  0.96952  0.88573  Biso   1.000  H
  H1158    1.0000 0.23177  0.52514  0.38327  Biso   1.000  H
  H1159    1.0000 0.23679  0.02760  0.60395  Biso   1.000  H
  H1160    1.0000 0.73423  0.47198  0.10149  Biso   1.000  H
  H1161    1.0000 0.51455  0.39068  0.23986  Biso   1.000  H
  H1162    1.0000 0.95893  0.88822  0.74735  Biso   1.000  H
  H1163    1.0000 0.45647  0.10890  0.74233  Biso   1.000  H
  H1164    1.0000 0.01209  0.60644  0.24489  Biso   1.000  H
  H1165    1.0000 0.59585  0.24728  0.96703  Biso   1.000  H
  H1166    1.0000 0.09339  0.74984  0.52265  Biso   1.000  H
  H1167    1.0000 0.87763  0.74482  0.02019  Biso   1.000  H
  H1168    1.0000 0.37517  0.25230  0.46457  Biso   1.000  H
  H1169    1.0000 0.23679  0.47198  0.38327  Biso   1.000  H
  H1170    1.0000 0.73423  0.02760  0.88573  Biso   1.000  H
  H1171    1.0000 0.73925  0.52514  0.10149  Biso   1.000  H
  H1172    1.0000 0.23177  0.96952  0.60395  Biso   1.000  H
  H1173    1.0000 0.01209  0.88822  0.74233  Biso   1.000  H
  H1174    1.0000 0.45647  0.39068  0.24489  Biso   1.000  H
  H1175    1.0000 0.95893  0.60644  0.23986  Biso   1.000  H
  H1176    1.0000 0.51455  0.10890  0.74735  Biso   1.000  H
  H1177    1.0000 0.87763  0.25230  0.52265  Biso   1.000  H
  H1178    1.0000 0.37517  0.74482  0.96703  Biso   1.000  H
  H1179    1.0000 0.59585  0.74984  0.46457  Biso   1.000  H
  H1180    1.0000 0.09339  0.24728  0.02019  Biso   1.000  H
  H1181    1.0000 0.23177  0.02760  0.10149  Biso   1.000  H
  H1182    1.0000 0.73925  0.47198  0.60395  Biso   1.000  H
  H1183    1.0000 0.73423  0.96952  0.38327  Biso   1.000  H
  H1184    1.0000 0.23679  0.52514  0.88573  Biso   1.000  H
  H1185    1.0000 0.45647  0.60644  0.74735  Biso   1.000  H
  H1186    1.0000 0.01209  0.10890  0.23986  Biso   1.000  H
  H1187    1.0000 0.51455  0.88822  0.24489  Biso   1.000  H
  H1188    1.0000 0.95893  0.39068  0.74233  Biso   1.000  H
  H1189    1.0000 0.37517  0.74984  0.02019  Biso   1.000  H
  H1190    1.0000 0.87763  0.24728  0.46457  Biso   1.000  H
  H1191    1.0000 0.09339  0.25230  0.96703  Biso   1.000  H
  H1192    1.0000 0.59585  0.74482  0.52265  Biso   1.000  H
  H1193    1.0000 0.73423  0.52514  0.60395  Biso   1.000  H
  H1194    1.0000 0.23679  0.96952  0.10149  Biso   1.000  H
  H1195    1.0000 0.23177  0.47198  0.88573  Biso   1.000  H
  H1196    1.0000 0.73925  0.02760  0.38327  Biso   1.000  H
  H1197    1.0000 0.95893  0.10890  0.24489  Biso   1.000  H
  H1198    1.0000 0.51455  0.60644  0.74233  Biso   1.000  H
  H1199    1.0000 0.01209  0.39068  0.74735  Biso   1.000  H
  H1200    1.0000 0.45647  0.88822  0.23986  Biso   1.000  H
  C1489    1.0000 0.06726  0.77094  0.40015  Biso   1.000  C
  C1490    1.0000 0.56972  0.22617  0.08460  Biso   1.000  C
  C1491    1.0000 0.40130  0.27340  0.58707  Biso   1.000  C
  C1492    1.0000 0.90376  0.72371  0.90261  Biso   1.000  C
  C1493    1.0000 0.71313  0.90510  0.91186  Biso   1.000  C
  C1494    1.0000 0.25790  0.58955  0.40940  Biso   1.000  C
  C1495    1.0000 0.21067  0.09202  0.57782  Biso   1.000  C
  C1496    1.0000 0.76036  0.40756  0.07536  Biso   1.000  C
  C1497    1.0000 0.57897  0.41681  0.26599  Biso   1.000  C
  C1498    1.0000 0.89452  0.91435  0.72122  Biso   1.000  C
  C1499    1.0000 0.39205  0.08277  0.76845  Biso   1.000  C
  C1500    1.0000 0.07651  0.58031  0.21876  Biso   1.000  C
  C1501    1.0000 0.56972  0.27340  0.90261  Biso   1.000  C
  C1502    1.0000 0.06726  0.72371  0.58707  Biso   1.000  C
  C1503    1.0000 0.90376  0.77094  0.08460  Biso   1.000  C
  C1504    1.0000 0.40130  0.22617  0.40015  Biso   1.000  C
  C1505    1.0000 0.21067  0.40756  0.40940  Biso   1.000  C
  C1506    1.0000 0.76036  0.09202  0.91186  Biso   1.000  C
  C1507    1.0000 0.71313  0.58955  0.07536  Biso   1.000  C
  C1508    1.0000 0.25790  0.90510  0.57782  Biso   1.000  C
  C1509    1.0000 0.07651  0.91435  0.76845  Biso   1.000  C
  C1510    1.0000 0.39205  0.41681  0.21876  Biso   1.000  C
  C1511    1.0000 0.89451  0.58031  0.26599  Biso   1.000  C
  C1512    1.0000 0.57897  0.08277  0.72122  Biso   1.000  C
  C1513    1.0000 0.90376  0.22617  0.58707  Biso   1.000  C
  C1514    1.0000 0.40130  0.77094  0.90261  Biso   1.000  C
  C1515    1.0000 0.56972  0.72371  0.40015  Biso   1.000  C
  C1516    1.0000 0.06726  0.27340  0.08460  Biso   1.000  C
  C1517    1.0000 0.25790  0.09202  0.07536  Biso   1.000  C
  C1518    1.0000 0.71313  0.40756  0.57782  Biso   1.000  C
  C1519    1.0000 0.76036  0.90510  0.40940  Biso   1.000  C
  C1520    1.0000 0.21067  0.58955  0.91186  Biso   1.000  C
  C1521    1.0000 0.39205  0.58031  0.72122  Biso   1.000  C
  C1522    1.0000 0.07651  0.08277  0.26599  Biso   1.000  C
  C1523    1.0000 0.57897  0.91435  0.21876  Biso   1.000  C
  C1524    1.0000 0.89452  0.41681  0.76845  Biso   1.000  C
  C1525    1.0000 0.40130  0.72371  0.08460  Biso   1.000  C
  C1526    1.0000 0.90376  0.27340  0.40015  Biso   1.000  C
  C1527    1.0000 0.06726  0.22617  0.90261  Biso   1.000  C
  C1528    1.0000 0.56972  0.77094  0.58707  Biso   1.000  C
  C1529    1.0000 0.76036  0.58955  0.57782  Biso   1.000  C
  C1530    1.0000 0.21067  0.90510  0.07536  Biso   1.000  C
  C1531    1.0000 0.25790  0.40756  0.91186  Biso   1.000  C
  C1532    1.0000 0.71313  0.09202  0.40940  Biso   1.000  C
  C1533    1.0000 0.89451  0.08277  0.21876  Biso   1.000  C
  C1534    1.0000 0.57897  0.58031  0.76845  Biso   1.000  C
  C1535    1.0000 0.07651  0.41681  0.72122  Biso   1.000  C
  C1536    1.0000 0.39205  0.91435  0.26599  Biso   1.000  C
  H1201    1.0000 0.05983  0.79084  0.40638  Biso   1.000  H
  H1202    1.0000 0.56229  0.20628  0.07837  Biso   1.000  H
  H1203    1.0000 0.40874  0.29330  0.58083  Biso   1.000  H
  H1204    1.0000 0.91120  0.70381  0.90884  Biso   1.000  H
  H1205    1.0000 0.69323  0.91133  0.91929  Biso   1.000  H
  H1206    1.0000 0.27779  0.58332  0.41683  Biso   1.000  H
  H1207    1.0000 0.19077  0.08578  0.57038  Biso   1.000  H
  H1208    1.0000 0.78026  0.41379  0.06792  Biso   1.000  H
  H1209    1.0000 0.57274  0.42424  0.28589  Biso   1.000  H
  H1210    1.0000 0.90075  0.92178  0.70132  Biso   1.000  H
  H1211    1.0000 0.39828  0.07533  0.78835  Biso   1.000  H
  H1212    1.0000 0.07028  0.57287  0.19886  Biso   1.000  H
  H1213    1.0000 0.56229  0.29330  0.90884  Biso   1.000  H
  H1214    1.0000 0.05983  0.70381  0.58083  Biso   1.000  H
  H1215    1.0000 0.91120  0.79084  0.07837  Biso   1.000  H
  H1216    1.0000 0.40874  0.20628  0.40638  Biso   1.000  H
  H1217    1.0000 0.19077  0.41379  0.41683  Biso   1.000  H
  H1218    1.0000 0.78026  0.08578  0.91929  Biso   1.000  H
  H1219    1.0000 0.69323  0.58332  0.06792  Biso   1.000  H
  H1220    1.0000 0.27779  0.91133  0.57038  Biso   1.000  H
  H1221    1.0000 0.07028  0.92178  0.78835  Biso   1.000  H
  H1222    1.0000 0.39828  0.42424  0.19886  Biso   1.000  H
  H1223    1.0000 0.90075  0.57287  0.28589  Biso   1.000  H
  H1224    1.0000 0.57274  0.07533  0.70132  Biso   1.000  H
  H1225    1.0000 0.91120  0.20628  0.58083  Biso   1.000  H
  H1226    1.0000 0.40874  0.79084  0.90884  Biso   1.000  H
  H1227    1.0000 0.56229  0.70381  0.40638  Biso   1.000  H
  H1228    1.0000 0.05983  0.29330  0.07837  Biso   1.000  H
  H1229    1.0000 0.27779  0.08578  0.06792  Biso   1.000  H
  H1230    1.0000 0.69323  0.41379  0.57038  Biso   1.000  H
  H1231    1.0000 0.78026  0.91133  0.41683  Biso   1.000  H
  H1232    1.0000 0.19077  0.58332  0.91929  Biso   1.000  H
  H1233    1.0000 0.39828  0.57287  0.70132  Biso   1.000  H
  H1234    1.0000 0.07028  0.07533  0.28589  Biso   1.000  H
  H1235    1.0000 0.57274  0.92178  0.19886  Biso   1.000  H
  H1236    1.0000 0.90075  0.42424  0.78835  Biso   1.000  H
  H1237    1.0000 0.40874  0.70381  0.07837  Biso   1.000  H
  H1238    1.0000 0.91120  0.29330  0.40638  Biso   1.000  H
  H1239    1.0000 0.05983  0.20628  0.90884  Biso   1.000  H
  H1240    1.0000 0.56229  0.79084  0.58083  Biso   1.000  H
  H1241    1.0000 0.78026  0.58332  0.57038  Biso   1.000  H
  H1242    1.0000 0.19077  0.91133  0.06792  Biso   1.000  H
  H1243    1.0000 0.27779  0.41379  0.91929  Biso   1.000  H
  H1244    1.0000 0.69323  0.08578  0.41683  Biso   1.000  H
  H1245    1.0000 0.90075  0.07533  0.19886  Biso   1.000  H
  H1246    1.0000 0.57274  0.57287  0.78835  Biso   1.000  H
  H1247    1.0000 0.07028  0.42424  0.70132  Biso   1.000  H
  H1248    1.0000 0.39828  0.92178  0.28589  Biso   1.000  H
  C1537    1.0000 0.09008  0.71286  0.38327  Biso   1.000  C
  C1538    1.0000 0.59254  0.28426  0.10149  Biso   1.000  C
  C1539    1.0000 0.37849  0.21532  0.60395  Biso   1.000  C
  C1540    1.0000 0.88095  0.78180  0.88573  Biso   1.000  C
  C1541    1.0000 0.77121  0.88822  0.88904  Biso   1.000  C
  C1542    1.0000 0.19981  0.60644  0.38658  Biso   1.000  C
  C1543    1.0000 0.26875  0.10890  0.60063  Biso   1.000  C
  C1544    1.0000 0.70227  0.39068  0.09817  Biso   1.000  C
  C1545    1.0000 0.59585  0.39399  0.20791  Biso   1.000  C
  C1546    1.0000 0.87763  0.89153  0.77931  Biso   1.000  C
  C1547    1.0000 0.37517  0.10558  0.71037  Biso   1.000  C
  C1548    1.0000 0.09339  0.60312  0.27685  Biso   1.000  C
  C1549    1.0000 0.59254  0.21532  0.88573  Biso   1.000  C
  C1550    1.0000 0.09008  0.78180  0.60395  Biso   1.000  C
  C1551    1.0000 0.88095  0.71286  0.10149  Biso   1.000  C
  C1552    1.0000 0.37849  0.28426  0.38327  Biso   1.000  C
  C1553    1.0000 0.26875  0.39068  0.38658  Biso   1.000  C
  C1554    1.0000 0.70227  0.10890  0.88904  Biso   1.000  C
  C1555    1.0000 0.77121  0.60644  0.09817  Biso   1.000  C
  C1556    1.0000 0.19981  0.88822  0.60063  Biso   1.000  C
  C1557    1.0000 0.09339  0.89153  0.71037  Biso   1.000  C
  C1558    1.0000 0.37517  0.39399  0.27685  Biso   1.000  C
  C1559    1.0000 0.87763  0.60312  0.20791  Biso   1.000  C
  C1560    1.0000 0.59585  0.10558  0.77931  Biso   1.000  C
  C1561    1.0000 0.88095  0.28426  0.60395  Biso   1.000  C
  C1562    1.0000 0.37849  0.71286  0.88573  Biso   1.000  C
  C1563    1.0000 0.59254  0.78180  0.38327  Biso   1.000  C
  C1564    1.0000 0.09008  0.21532  0.10149  Biso   1.000  C
  C1565    1.0000 0.19981  0.10890  0.09817  Biso   1.000  C
  C1566    1.0000 0.77121  0.39068  0.60063  Biso   1.000  C
  C1567    1.0000 0.70227  0.88822  0.38658  Biso   1.000  C
  C1568    1.0000 0.26875  0.60644  0.88904  Biso   1.000  C
  C1569    1.0000 0.37517  0.60312  0.77931  Biso   1.000  C
  C1570    1.0000 0.09339  0.10558  0.20791  Biso   1.000  C
  C1571    1.0000 0.59585  0.89153  0.27685  Biso   1.000  C
  C1572    1.0000 0.87763  0.39399  0.71037  Biso   1.000  C
  C1573    1.0000 0.37849  0.78180  0.10149  Biso   1.000  C
  C1574    1.0000 0.88095  0.21532  0.38327  Biso   1.000  C
  C1575    1.0000 0.09008  0.28426  0.88573  Biso   1.000  C
  C1576    1.0000 0.59254  0.71286  0.60395  Biso   1.000  C
  C1577    1.0000 0.70227  0.60644  0.60063  Biso   1.000  C
  C1578    1.0000 0.26875  0.88822  0.09817  Biso   1.000  C
  C1579    1.0000 0.19981  0.39068  0.88904  Biso   1.000  C
  C1580    1.0000 0.77121  0.10890  0.38658  Biso   1.000  C
  C1581    1.0000 0.87763  0.10558  0.27685  Biso   1.000  C
  C1582    1.0000 0.59585  0.60312  0.71037  Biso   1.000  C
  C1583    1.0000 0.09339  0.39399  0.77931  Biso   1.000  C
  C1584    1.0000 0.37517  0.89153  0.20791  Biso   1.000  C
  C1585    1.0000 0.10244  0.73929  0.36910  Biso   1.000  C
  C1586    1.0000 0.60490  0.25783  0.11566  Biso   1.000  C
  C1587    1.0000 0.36613  0.24175  0.61812  Biso   1.000  C
  C1588    1.0000 0.86859  0.75537  0.87156  Biso   1.000  C
  C1589    1.0000 0.74478  0.87405  0.87668  Biso   1.000  C
  C1590    1.0000 0.22624  0.62061  0.37422  Biso   1.000  C
  C1591    1.0000 0.24232  0.12307  0.61299  Biso   1.000  C
  C1592    1.0000 0.72870  0.37651  0.11053  Biso   1.000  C
  C1593    1.0000 0.61002  0.38163  0.23434  Biso   1.000  C
  C1594    1.0000 0.86346  0.87917  0.75288  Biso   1.000  C
  C1595    1.0000 0.36100  0.11794  0.73680  Biso   1.000  C
  C1596    1.0000 0.10756  0.61548  0.25042  Biso   1.000  C
  C1597    1.0000 0.60490  0.24175  0.87156  Biso   1.000  C
  C1598    1.0000 0.10244  0.75537  0.61812  Biso   1.000  C
  C1599    1.0000 0.86859  0.73929  0.11566  Biso   1.000  C
  C1600    1.0000 0.36613  0.25783  0.36910  Biso   1.000  C
  C1601    1.0000 0.24232  0.37651  0.37422  Biso   1.000  C
  C1602    1.0000 0.72870  0.12307  0.87668  Biso   1.000  C
  C1603    1.0000 0.74478  0.62061  0.11053  Biso   1.000  C
  C1604    1.0000 0.22624  0.87405  0.61299  Biso   1.000  C
  C1605    1.0000 0.10756  0.87917  0.73680  Biso   1.000  C
  C1606    1.0000 0.36100  0.38163  0.25042  Biso   1.000  C
  C1607    1.0000 0.86346  0.61548  0.23434  Biso   1.000  C
  C1608    1.0000 0.61002  0.11794  0.75288  Biso   1.000  C
  C1609    1.0000 0.86859  0.25783  0.61812  Biso   1.000  C
  C1610    1.0000 0.36613  0.73929  0.87156  Biso   1.000  C
  C1611    1.0000 0.60490  0.75537  0.36910  Biso   1.000  C
  C1612    1.0000 0.10244  0.24175  0.11566  Biso   1.000  C
  C1613    1.0000 0.22624  0.12307  0.11053  Biso   1.000  C
  C1614    1.0000 0.74478  0.37651  0.61299  Biso   1.000  C
  C1615    1.0000 0.72870  0.87405  0.37422  Biso   1.000  C
  C1616    1.0000 0.24232  0.62061  0.87668  Biso   1.000  C
  C1617    1.0000 0.36100  0.61548  0.75288  Biso   1.000  C
  C1618    1.0000 0.10756  0.11794  0.23434  Biso   1.000  C
  C1619    1.0000 0.61002  0.87917  0.25042  Biso   1.000  C
  C1620    1.0000 0.86346  0.38163  0.73680  Biso   1.000  C
  C1621    1.0000 0.36613  0.75537  0.11566  Biso   1.000  C
  C1622    1.0000 0.86859  0.24175  0.36910  Biso   1.000  C
  C1623    1.0000 0.10244  0.25783  0.87156  Biso   1.000  C
  C1624    1.0000 0.60490  0.73929  0.61812  Biso   1.000  C
  C1625    1.0000 0.72870  0.62061  0.61299  Biso   1.000  C
  C1626    1.0000 0.24232  0.87405  0.11053  Biso   1.000  C
  C1627    1.0000 0.22624  0.37651  0.87668  Biso   1.000  C
  C1628    1.0000 0.74478  0.12307  0.37422  Biso   1.000  C
  C1629    1.0000 0.86346  0.11794  0.25042  Biso   1.000  C
  C1630    1.0000 0.61002  0.61548  0.73680  Biso   1.000  C
  C1631    1.0000 0.10756  0.38163  0.75288  Biso   1.000  C
  C1632    1.0000 0.36100  0.87917  0.23434  Biso   1.000  C
  H1249    1.0000 0.11801  0.73758  0.35342  Biso   1.000  H
  H1250    1.0000 0.62047  0.25954  0.13133  Biso   1.000  H
  H1251    1.0000 0.35055  0.24004  0.63379  Biso   1.000  H
  H1252    1.0000 0.85301  0.75708  0.85588  Biso   1.000  H
  H1253    1.0000 0.74649  0.85837  0.86111  Biso   1.000  H
  H1254    1.0000 0.22453  0.63628  0.35865  Biso   1.000  H
  H1255    1.0000 0.24403  0.13874  0.62857  Biso   1.000  H
  H1256    1.0000 0.72699  0.36083  0.12611  Biso   1.000  H
  H1257    1.0000 0.62570  0.36606  0.23263  Biso   1.000  H
  H1258    1.0000 0.84779  0.86360  0.75459  Biso   1.000  H
  H1259    1.0000 0.34533  0.13352  0.73509  Biso   1.000  H
  H1260    1.0000 0.12324  0.63106  0.25212  Biso   1.000  H
  H1261    1.0000 0.62047  0.24004  0.85588  Biso   1.000  H
  H1262    1.0000 0.11801  0.75708  0.63379  Biso   1.000  H
  H1263    1.0000 0.85301  0.73758  0.13133  Biso   1.000  H
  H1264    1.0000 0.35055  0.25954  0.35342  Biso   1.000  H
  H1265    1.0000 0.24403  0.36083  0.35865  Biso   1.000  H
  H1266    1.0000 0.72699  0.13874  0.86111  Biso   1.000  H
  H1267    1.0000 0.74649  0.63628  0.12611  Biso   1.000  H
  H1268    1.0000 0.22453  0.85837  0.62857  Biso   1.000  H
  H1269    1.0000 0.12324  0.86360  0.73509  Biso   1.000  H
  H1270    1.0000 0.34533  0.36606  0.25212  Biso   1.000  H
  H1271    1.0000 0.84779  0.63106  0.23263  Biso   1.000  H
  H1272    1.0000 0.62570  0.13352  0.75459  Biso   1.000  H
  H1273    1.0000 0.85301  0.25954  0.63379  Biso   1.000  H
  H1274    1.0000 0.35055  0.73758  0.85588  Biso   1.000  H
  H1275    1.0000 0.62047  0.75708  0.35342  Biso   1.000  H
  H1276    1.0000 0.11801  0.24004  0.13133  Biso   1.000  H
  H1277    1.0000 0.22453  0.13874  0.12611  Biso   1.000  H
  H1278    1.0000 0.74649  0.36083  0.62857  Biso   1.000  H
  H1279    1.0000 0.72699  0.85837  0.35865  Biso   1.000  H
  H1280    1.0000 0.24403  0.63628  0.86111  Biso   1.000  H
  H1281    1.0000 0.34533  0.63106  0.75459  Biso   1.000  H
  H1282    1.0000 0.12324  0.13352  0.23263  Biso   1.000  H
  H1283    1.0000 0.62570  0.86360  0.25212  Biso   1.000  H
  H1284    1.0000 0.84779  0.36606  0.73509  Biso   1.000  H
  H1285    1.0000 0.35055  0.75708  0.13133  Biso   1.000  H
  H1286    1.0000 0.85301  0.24004  0.35342  Biso   1.000  H
  H1287    1.0000 0.11801  0.25954  0.85588  Biso   1.000  H
  H1288    1.0000 0.62047  0.73758  0.63379  Biso   1.000  H
  H1289    1.0000 0.72699  0.63628  0.62857  Biso   1.000  H
  H1290    1.0000 0.24403  0.85837  0.12611  Biso   1.000  H
  H1291    1.0000 0.22453  0.36083  0.86111  Biso   1.000  H
  H1292    1.0000 0.74649  0.13874  0.35865  Biso   1.000  H
  H1293    1.0000 0.84779  0.13352  0.25212  Biso   1.000  H
  H1294    1.0000 0.62570  0.63106  0.73509  Biso   1.000  H
  H1295    1.0000 0.12324  0.36606  0.75459  Biso   1.000  H
  H1296    1.0000 0.34533  0.86360  0.23263  Biso   1.000  H
  C1633    1.0000 0.09118  0.76833  0.37844  Biso   1.000  C
  C1634    1.0000 0.59364  0.22879  0.10631  Biso   1.000  C
  C1635    1.0000 0.37738  0.27079  0.60877  Biso   1.000  C
  C1636    1.0000 0.87984  0.72632  0.88090  Biso   1.000  C
  C1637    1.0000 0.71574  0.88339  0.88794  Biso   1.000  C
  C1638    1.0000 0.25528  0.61126  0.38548  Biso   1.000  C
  C1639    1.0000 0.21328  0.11372  0.60174  Biso   1.000  C
  C1640    1.0000 0.75775  0.38585  0.09928  Biso   1.000  C
  C1641    1.0000 0.60068  0.39289  0.26338  Biso   1.000  C
  C1642    1.0000 0.87281  0.89043  0.72384  Biso   1.000  C
  C1643    1.0000 0.37035  0.10669  0.76584  Biso   1.000  C
  C1644    1.0000 0.09822  0.60423  0.22137  Biso   1.000  C
  C1645    1.0000 0.59364  0.27079  0.88090  Biso   1.000  C
  C1646    1.0000 0.09118  0.72632  0.60877  Biso   1.000  C
  C1647    1.0000 0.87984  0.76833  0.10631  Biso   1.000  C
  C1648    1.0000 0.37738  0.22879  0.37844  Biso   1.000  C
  C1649    1.0000 0.21328  0.38585  0.38548  Biso   1.000  C
  C1650    1.0000 0.75775  0.11372  0.88794  Biso   1.000  C
  C1651    1.0000 0.71574  0.61126  0.09928  Biso   1.000  C
  C1652    1.0000 0.25528  0.88339  0.60174  Biso   1.000  C
  C1653    1.0000 0.09822  0.89043  0.76584  Biso   1.000  C
  C1654    1.0000 0.37035  0.39289  0.22137  Biso   1.000  C
  C1655    1.0000 0.87281  0.60423  0.26338  Biso   1.000  C
  C1656    1.0000 0.60068  0.10669  0.72384  Biso   1.000  C
  C1657    1.0000 0.87984  0.22879  0.60877  Biso   1.000  C
  C1658    1.0000 0.37738  0.76833  0.88090  Biso   1.000  C
  C1659    1.0000 0.59364  0.72632  0.37844  Biso   1.000  C
  C1660    1.0000 0.09118  0.27079  0.10631  Biso   1.000  C
  C1661    1.0000 0.25528  0.11372  0.09928  Biso   1.000  C
  C1662    1.0000 0.71574  0.38585  0.60174  Biso   1.000  C
  C1663    1.0000 0.75775  0.88339  0.38548  Biso   1.000  C
  C1664    1.0000 0.21328  0.61126  0.88794  Biso   1.000  C
  C1665    1.0000 0.37035  0.60423  0.72384  Biso   1.000  C
  C1666    1.0000 0.09822  0.10669  0.26338  Biso   1.000  C
  C1667    1.0000 0.60068  0.89043  0.22137  Biso   1.000  C
  C1668    1.0000 0.87281  0.39289  0.76584  Biso   1.000  C
  C1669    1.0000 0.37738  0.72632  0.10631  Biso   1.000  C
  C1670    1.0000 0.87984  0.27079  0.37844  Biso   1.000  C
  C1671    1.0000 0.09118  0.22879  0.88090  Biso   1.000  C
  C1672    1.0000 0.59364  0.76833  0.60877  Biso   1.000  C
  C1673    1.0000 0.75775  0.61126  0.60174  Biso   1.000  C
  C1674    1.0000 0.21328  0.88339  0.09928  Biso   1.000  C
  C1675    1.0000 0.25528  0.38585  0.88794  Biso   1.000  C
  C1676    1.0000 0.71574  0.11372  0.38548  Biso   1.000  C
  C1677    1.0000 0.87281  0.10669  0.22137  Biso   1.000  C
  C1678    1.0000 0.60068  0.60423  0.76584  Biso   1.000  C
  C1679    1.0000 0.09822  0.39289  0.72384  Biso   1.000  C
  C1680    1.0000 0.37035  0.89043  0.26338  Biso   1.000  C
  C1681    1.0000 0.86397  0.77346  0.37854  Biso   1.000  C
  C1682    1.0000 0.36150  0.22366  0.10621  Biso   1.000  C
  C1683    1.0000 0.60952  0.27592  0.60867  Biso   1.000  C
  C1684    1.0000 0.10706  0.72120  0.88100  Biso   1.000  C
  C1685    1.0000 0.71061  0.88349  0.11515  Biso   1.000  C
  C1686    1.0000 0.26041  0.61116  0.61761  Biso   1.000  C
  C1687    1.0000 0.20815  0.11362  0.36960  Biso   1.000  C
  C1688    1.0000 0.76287  0.38595  0.87206  Biso   1.000  C
  C1689    1.0000 0.60058  0.62010  0.26851  Biso   1.000  C
  C1690    1.0000 0.87291  0.12257  0.71871  Biso   1.000  C
  C1691    1.0000 0.37045  0.87455  0.77097  Biso   1.000  C
  C1692    1.0000 0.09811  0.37701  0.21625  Biso   1.000  C
  C1693    1.0000 0.36150  0.27592  0.88100  Biso   1.000  C
  C1694    1.0000 0.86397  0.72120  0.60867  Biso   1.000  C
  C1695    1.0000 0.10706  0.77346  0.10621  Biso   1.000  C
  C1696    1.0000 0.60952  0.22366  0.37854  Biso   1.000  C
  C1697    1.0000 0.20815  0.38595  0.61761  Biso   1.000  C
  C1698    1.0000 0.76287  0.11362  0.11515  Biso   1.000  C
  C1699    1.0000 0.71061  0.61116  0.87206  Biso   1.000  C
  C1700    1.0000 0.26041  0.88349  0.36960  Biso   1.000  C
  C1701    1.0000 0.09811  0.12257  0.77097  Biso   1.000  C
  C1702    1.0000 0.37045  0.62010  0.21625  Biso   1.000  C
  C1703    1.0000 0.87291  0.37701  0.26851  Biso   1.000  C
  C1704    1.0000 0.60058  0.87455  0.71871  Biso   1.000  C
  C1705    1.0000 0.10706  0.22366  0.60867  Biso   1.000  C
  C1706    1.0000 0.60952  0.77346  0.88100  Biso   1.000  C
  C1707    1.0000 0.36150  0.72120  0.37854  Biso   1.000  C
  C1708    1.0000 0.86397  0.27592  0.10621  Biso   1.000  C
  C1709    1.0000 0.26041  0.11362  0.87206  Biso   1.000  C
  C1710    1.0000 0.71061  0.38595  0.36960  Biso   1.000  C
  C1711    1.0000 0.76287  0.88349  0.61761  Biso   1.000  C
  C1712    1.0000 0.20815  0.61116  0.11515  Biso   1.000  C
  C1713    1.0000 0.37045  0.37701  0.71871  Biso   1.000  C
  C1714    1.0000 0.09811  0.87455  0.26851  Biso   1.000  C
  C1715    1.0000 0.60058  0.12257  0.21625  Biso   1.000  C
  C1716    1.0000 0.87291  0.62010  0.77097  Biso   1.000  C
  C1717    1.0000 0.60952  0.72120  0.10621  Biso   1.000  C
  C1718    1.0000 0.10706  0.27592  0.37854  Biso   1.000  C
  C1719    1.0000 0.86397  0.22366  0.88100  Biso   1.000  C
  C1720    1.0000 0.36150  0.77346  0.60867  Biso   1.000  C
  C1721    1.0000 0.76287  0.61116  0.36960  Biso   1.000  C
  C1722    1.0000 0.20815  0.88349  0.87206  Biso   1.000  C
  C1723    1.0000 0.26041  0.38595  0.11515  Biso   1.000  C
  C1724    1.0000 0.71061  0.11362  0.61761  Biso   1.000  C
  C1725    1.0000 0.87291  0.87455  0.21625  Biso   1.000  C
  C1726    1.0000 0.60058  0.37701  0.77097  Biso   1.000  C
  C1727    1.0000 0.09811  0.62010  0.71871  Biso   1.000  C
  C1728    1.0000 0.37045  0.12257  0.26851  Biso   1.000  C
  C1729    1.0000 0.84970  0.80370  0.36849  Biso   1.000  C
  C1730    1.0000 0.34723  0.19341  0.11626  Biso   1.000  C
  C1731    1.0000 0.62379  0.30616  0.61872  Biso   1.000  C
  C1732    1.0000 0.12133  0.69095  0.87096  Biso   1.000  C
  C1733    1.0000 0.68037  0.87344  0.12942  Biso   1.000  C
  C1734    1.0000 0.29066  0.62121  0.63188  Biso   1.000  C
  C1735    1.0000 0.17791  0.12367  0.35533  Biso   1.000  C
  C1736    1.0000 0.79312  0.37591  0.85779  Biso   1.000  C
  C1737    1.0000 0.61062  0.63437  0.29875  Biso   1.000  C
  C1738    1.0000 0.86286  0.13684  0.68846  Biso   1.000  C
  C1739    1.0000 0.36040  0.86028  0.80121  Biso   1.000  C
  C1740    1.0000 0.10816  0.36274  0.18600  Biso   1.000  C
  C1741    1.0000 0.34723  0.30616  0.87096  Biso   1.000  C
  C1742    1.0000 0.84970  0.69095  0.61872  Biso   1.000  C
  C1743    1.0000 0.12133  0.80370  0.11626  Biso   1.000  C
  C1744    1.0000 0.62379  0.19341  0.36849  Biso   1.000  C
  C1745    1.0000 0.17791  0.37591  0.63188  Biso   1.000  C
  C1746    1.0000 0.79312  0.12367  0.12942  Biso   1.000  C
  C1747    1.0000 0.68037  0.62121  0.85779  Biso   1.000  C
  C1748    1.0000 0.29066  0.87344  0.35533  Biso   1.000  C
  C1749    1.0000 0.10816  0.13684  0.80121  Biso   1.000  C
  C1750    1.0000 0.36040  0.63437  0.18600  Biso   1.000  C
  C1751    1.0000 0.86286  0.36274  0.29875  Biso   1.000  C
  C1752    1.0000 0.61062  0.86028  0.68846  Biso   1.000  C
  C1753    1.0000 0.12133  0.19341  0.61872  Biso   1.000  C
  C1754    1.0000 0.62379  0.80370  0.87096  Biso   1.000  C
  C1755    1.0000 0.34723  0.69095  0.36849  Biso   1.000  C
  C1756    1.0000 0.84970  0.30616  0.11626  Biso   1.000  C
  C1757    1.0000 0.29066  0.12367  0.85779  Biso   1.000  C
  C1758    1.0000 0.68037  0.37591  0.35533  Biso   1.000  C
  C1759    1.0000 0.79312  0.87344  0.63188  Biso   1.000  C
  C1760    1.0000 0.17791  0.62121  0.12942  Biso   1.000  C
  C1761    1.0000 0.36040  0.36274  0.68846  Biso   1.000  C
  C1762    1.0000 0.10816  0.86028  0.29875  Biso   1.000  C
  C1763    1.0000 0.61062  0.13684  0.18600  Biso   1.000  C
  C1764    1.0000 0.86286  0.63437  0.80121  Biso   1.000  C
  C1765    1.0000 0.62379  0.69095  0.11626  Biso   1.000  C
  C1766    1.0000 0.12133  0.30616  0.36849  Biso   1.000  C
  C1767    1.0000 0.84970  0.19341  0.87096  Biso   1.000  C
  C1768    1.0000 0.34723  0.80370  0.61872  Biso   1.000  C
  C1769    1.0000 0.79312  0.62121  0.35533  Biso   1.000  C
  C1770    1.0000 0.17791  0.87344  0.85779  Biso   1.000  C
  C1771    1.0000 0.29066  0.37591  0.12942  Biso   1.000  C
  C1772    1.0000 0.68037  0.12367  0.63188  Biso   1.000  C
  C1773    1.0000 0.86286  0.86028  0.18600  Biso   1.000  C
  C1774    1.0000 0.61062  0.36274  0.80121  Biso   1.000  C
  C1775    1.0000 0.10816  0.63437  0.68846  Biso   1.000  C
  C1776    1.0000 0.36040  0.13684  0.29875  Biso   1.000  C
  C1777    1.0000 0.10625  0.79757  0.36598  Biso   1.000  C
  C1778    1.0000 0.60872  0.19954  0.11877  Biso   1.000  C
  C1779    1.0000 0.36231  0.30003  0.62123  Biso   1.000  C
  C1780    1.0000 0.86477  0.69708  0.86844  Biso   1.000  C
  C1781    1.0000 0.68650  0.87093  0.87286  Biso   1.000  C
  C1782    1.0000 0.28453  0.62372  0.37040  Biso   1.000  C
  C1783    1.0000 0.18404  0.12618  0.61681  Biso   1.000  C
  C1784    1.0000 0.78699  0.37339  0.11435  Biso   1.000  C
  C1785    1.0000 0.61314  0.37782  0.29262  Biso   1.000  C
  C1786    1.0000 0.86035  0.87535  0.69459  Biso   1.000  C
  C1787    1.0000 0.35789  0.12176  0.79508  Biso   1.000  C
  C1788    1.0000 0.11068  0.61930  0.19213  Biso   1.000  C
  C1789    1.0000 0.60872  0.30003  0.86844  Biso   1.000  C
  C1790    1.0000 0.10625  0.69708  0.62123  Biso   1.000  C
  C1791    1.0000 0.86477  0.79757  0.11877  Biso   1.000  C
  C1792    1.0000 0.36231  0.19954  0.36598  Biso   1.000  C
  C1793    1.0000 0.18404  0.37339  0.37040  Biso   1.000  C
  C1794    1.0000 0.78699  0.12618  0.87286  Biso   1.000  C
  C1795    1.0000 0.68650  0.62372  0.11435  Biso   1.000  C
  C1796    1.0000 0.28453  0.87093  0.61681  Biso   1.000  C
  C1797    1.0000 0.11068  0.87535  0.79508  Biso   1.000  C
  C1798    1.0000 0.35789  0.37782  0.19213  Biso   1.000  C
  C1799    1.0000 0.86035  0.61930  0.29262  Biso   1.000  C
  C1800    1.0000 0.61314  0.12176  0.69459  Biso   1.000  C
  C1801    1.0000 0.86477  0.19954  0.62123  Biso   1.000  C
  C1802    1.0000 0.36231  0.79757  0.86844  Biso   1.000  C
  C1803    1.0000 0.60872  0.69708  0.36598  Biso   1.000  C
  C1804    1.0000 0.10625  0.30003  0.11877  Biso   1.000  C
  C1805    1.0000 0.28453  0.12618  0.11435  Biso   1.000  C
  C1806    1.0000 0.68650  0.37339  0.61681  Biso   1.000  C
  C1807    1.0000 0.78699  0.87093  0.37040  Biso   1.000  C
  C1808    1.0000 0.18404  0.62372  0.87286  Biso   1.000  C
  C1809    1.0000 0.35789  0.61930  0.69459  Biso   1.000  C
  C1810    1.0000 0.11068  0.12176  0.29262  Biso   1.000  C
  C1811    1.0000 0.61314  0.87535  0.19213  Biso   1.000  C
  C1812    1.0000 0.86035  0.37782  0.79508  Biso   1.000  C
  C1813    1.0000 0.36231  0.69708  0.11877  Biso   1.000  C
  C1814    1.0000 0.86477  0.30003  0.36598  Biso   1.000  C
  C1815    1.0000 0.10625  0.19954  0.86844  Biso   1.000  C
  C1816    1.0000 0.60872  0.79757  0.62123  Biso   1.000  C
  C1817    1.0000 0.78699  0.62372  0.61681  Biso   1.000  C
  C1818    1.0000 0.18404  0.87093  0.11435  Biso   1.000  C
  C1819    1.0000 0.28453  0.37339  0.87286  Biso   1.000  C
  C1820    1.0000 0.68650  0.12618  0.37040  Biso   1.000  C
  C1821    1.0000 0.86035  0.12176  0.19213  Biso   1.000  C
  C1822    1.0000 0.61314  0.61930  0.79508  Biso   1.000  C
  C1823    1.0000 0.11068  0.37782  0.69459  Biso   1.000  C
  C1824    1.0000 0.35789  0.87535  0.29262  Biso   1.000  C
  C1825    1.0000 0.10465  0.68181  0.37503  Biso   1.000  C
  C1826    1.0000 0.60711  0.31531  0.10973  Biso   1.000  C
  C1827    1.0000 0.36392  0.18427  0.61219  Biso   1.000  C
  C1828    1.0000 0.86638  0.81285  0.87749  Biso   1.000  C
  C1829    1.0000 0.80226  0.87998  0.87447  Biso   1.000  C
  C1830    1.0000 0.16876  0.61468  0.37201  Biso   1.000  C
  C1831    1.0000 0.29980  0.11714  0.61520  Biso   1.000  C
  C1832    1.0000 0.67122  0.38244  0.11274  Biso   1.000  C
  C1833    1.0000 0.60409  0.37942  0.17686  Biso   1.000  C
  C1834    1.0000 0.86939  0.87696  0.81036  Biso   1.000  C
  C1835    1.0000 0.36693  0.12015  0.67932  Biso   1.000  C
  C1836    1.0000 0.10163  0.61769  0.30790  Biso   1.000  C
  C1837    1.0000 0.60711  0.18427  0.87749  Biso   1.000  C
  C1838    1.0000 0.10465  0.81285  0.61219  Biso   1.000  C
  C1839    1.0000 0.86638  0.68181  0.10973  Biso   1.000  C
  C1840    1.0000 0.36392  0.31531  0.37503  Biso   1.000  C
  C1841    1.0000 0.29980  0.38244  0.37201  Biso   1.000  C
  C1842    1.0000 0.67122  0.11714  0.87447  Biso   1.000  C
  C1843    1.0000 0.80226  0.61468  0.11274  Biso   1.000  C
  C1844    1.0000 0.16876  0.87998  0.61520  Biso   1.000  C
  C1845    1.0000 0.10163  0.87696  0.67932  Biso   1.000  C
  C1846    1.0000 0.36693  0.37942  0.30790  Biso   1.000  C
  C1847    1.0000 0.86939  0.61769  0.17686  Biso   1.000  C
  C1848    1.0000 0.60409  0.12015  0.81036  Biso   1.000  C
  C1849    1.0000 0.86638  0.31531  0.61219  Biso   1.000  C
  C1850    1.0000 0.36392  0.68181  0.87749  Biso   1.000  C
  C1851    1.0000 0.60711  0.81285  0.37503  Biso   1.000  C
  C1852    1.0000 0.10465  0.18427  0.10973  Biso   1.000  C
  C1853    1.0000 0.16876  0.11714  0.11274  Biso   1.000  C
  C1854    1.0000 0.80226  0.38244  0.61520  Biso   1.000  C
  C1855    1.0000 0.67122  0.87998  0.37201  Biso   1.000  C
  C1856    1.0000 0.29980  0.61468  0.87447  Biso   1.000  C
  C1857    1.0000 0.36693  0.61769  0.81036  Biso   1.000  C
  C1858    1.0000 0.10163  0.12015  0.17686  Biso   1.000  C
  C1859    1.0000 0.60409  0.87696  0.30790  Biso   1.000  C
  C1860    1.0000 0.86939  0.37942  0.67932  Biso   1.000  C
  C1861    1.0000 0.36392  0.81285  0.10973  Biso   1.000  C
  C1862    1.0000 0.86638  0.18427  0.37503  Biso   1.000  C
  C1863    1.0000 0.10465  0.31531  0.87749  Biso   1.000  C
  C1864    1.0000 0.60711  0.68181  0.61219  Biso   1.000  C
  C1865    1.0000 0.67122  0.61468  0.61520  Biso   1.000  C
  C1866    1.0000 0.29980  0.87998  0.11274  Biso   1.000  C
  C1867    1.0000 0.16876  0.38244  0.87447  Biso   1.000  C
  C1868    1.0000 0.80226  0.11714  0.37201  Biso   1.000  C
  C1869    1.0000 0.86939  0.12015  0.30790  Biso   1.000  C
  C1870    1.0000 0.60409  0.61769  0.67932  Biso   1.000  C
  C1871    1.0000 0.10163  0.37942  0.81036  Biso   1.000  C
  C1872    1.0000 0.36693  0.87696  0.17686  Biso   1.000  C
  N97      1.0000 0.93160  0.74733  0.49361  Biso   1.000  N
  N98      1.0000 0.42914  0.24979  0.99115  Biso   1.000  N
  N99      1.0000 0.54189  0.24979  0.49361  Biso   1.000  N
  N100     1.0000 0.03943  0.74733  0.99115  Biso   1.000  N
  N101     1.0000 0.73674  0.99856  0.04752  Biso   1.000  N
  N102     1.0000 0.23428  0.49610  0.54998  Biso   1.000  N
  N103     1.0000 0.23428  0.99856  0.43723  Biso   1.000  N
  N104     1.0000 0.73674  0.49610  0.93969  Biso   1.000  N
  N105     1.0000 0.48551  0.55247  0.24238  Biso   1.000  N
  N106     1.0000 0.98797  0.05493  0.74484  Biso   1.000  N
  N107     1.0000 0.48551  0.94218  0.74484  Biso   1.000  N
  N108     1.0000 0.98797  0.44464  0.24238  Biso   1.000  N
  N109     1.0000 0.03943  0.24979  0.49361  Biso   1.000  N
  N110     1.0000 0.54189  0.74733  0.99115  Biso   1.000  N
  N111     1.0000 0.42914  0.74733  0.49361  Biso   1.000  N
  N112     1.0000 0.93160  0.24979  0.99115  Biso   1.000  N
  N113     1.0000 0.23428  0.99856  0.93969  Biso   1.000  N
  N114     1.0000 0.73674  0.49610  0.43723  Biso   1.000  N
  N115     1.0000 0.73674  0.99856  0.54998  Biso   1.000  N
  N116     1.0000 0.23428  0.49610  0.04752  Biso   1.000  N
  N117     1.0000 0.48551  0.44464  0.74484  Biso   1.000  N
  N118     1.0000 0.98797  0.94218  0.24238  Biso   1.000  N
  N119     1.0000 0.48551  0.05493  0.24238  Biso   1.000  N
  N120     1.0000 0.98797  0.55247  0.74484  Biso   1.000  N
  N121     1.0000 0.97833  0.74421  0.44668  Biso   1.000  N
  N122     1.0000 0.47586  0.25290  0.03808  Biso   1.000  N
  N123     1.0000 0.49516  0.24667  0.54054  Biso   1.000  N
  N124     1.0000 0.99270  0.75044  0.94914  Biso   1.000  N
  N125     1.0000 0.73986  0.95163  0.00079  Biso   1.000  N
  N126     1.0000 0.23117  0.54303  0.50325  Biso   1.000  N
  N127     1.0000 0.23740  0.04549  0.48396  Biso   1.000  N
  N128     1.0000 0.73363  0.45409  0.98642  Biso   1.000  N
  N129     1.0000 0.53244  0.50574  0.23926  Biso   1.000  N
  N130     1.0000 0.94104  0.00820  0.74795  Biso   1.000  N
  N131     1.0000 0.43858  0.98891  0.74172  Biso   1.000  N
  N132     1.0000 0.02998  0.49137  0.24549  Biso   1.000  N
  N133     1.0000 0.47586  0.24667  0.94914  Biso   1.000  N
  N134     1.0000 0.97833  0.75044  0.54054  Biso   1.000  N
  N135     1.0000 0.99270  0.74421  0.03808  Biso   1.000  N
  N136     1.0000 0.49516  0.25290  0.44668  Biso   1.000  N
  N137     1.0000 0.23740  0.45409  0.50325  Biso   1.000  N
  N138     1.0000 0.73363  0.04549  0.00079  Biso   1.000  N
  N139     1.0000 0.73986  0.54303  0.98642  Biso   1.000  N
  N140     1.0000 0.23117  0.95163  0.48396  Biso   1.000  N
  N141     1.0000 0.02998  0.00820  0.74172  Biso   1.000  N
  N142     1.0000 0.43858  0.50574  0.24549  Biso   1.000  N
  N143     1.0000 0.94104  0.49137  0.23926  Biso   1.000  N
  N144     1.0000 0.53244  0.98891  0.74795  Biso   1.000  N
  N145     1.0000 0.99270  0.25290  0.54054  Biso   1.000  N
  N146     1.0000 0.49516  0.74421  0.94914  Biso   1.000  N
  N147     1.0000 0.47586  0.75044  0.44668  Biso   1.000  N
  N148     1.0000 0.97833  0.24667  0.03808  Biso   1.000  N
  N149     1.0000 0.23117  0.04549  0.98642  Biso   1.000  N
  N150     1.0000 0.73986  0.45409  0.48396  Biso   1.000  N
  N151     1.0000 0.73363  0.95163  0.50325  Biso   1.000  N
  N152     1.0000 0.23740  0.54303  0.00079  Biso   1.000  N
  N153     1.0000 0.43858  0.49137  0.74795  Biso   1.000  N
  N154     1.0000 0.02998  0.98891  0.23926  Biso   1.000  N
  N155     1.0000 0.53244  0.00820  0.24549  Biso   1.000  N
  N156     1.0000 0.94104  0.50574  0.74172  Biso   1.000  N
  N157     1.0000 0.49516  0.75044  0.03808  Biso   1.000  N
  N158     1.0000 0.99270  0.24667  0.44668  Biso   1.000  N
  N159     1.0000 0.97833  0.25290  0.94914  Biso   1.000  N
  N160     1.0000 0.47586  0.74421  0.54054  Biso   1.000  N
  N161     1.0000 0.73363  0.54303  0.48396  Biso   1.000  N
  N162     1.0000 0.23740  0.95163  0.98642  Biso   1.000  N
  N163     1.0000 0.23117  0.45409  0.00079  Biso   1.000  N
  N164     1.0000 0.73986  0.04549  0.50325  Biso   1.000  N
  N165     1.0000 0.94104  0.98891  0.24549  Biso   1.000  N
  N166     1.0000 0.53244  0.49137  0.74172  Biso   1.000  N
  N167     1.0000 0.02998  0.50574  0.74795  Biso   1.000  N
  N168     1.0000 0.43858  0.00820  0.23926  Biso   1.000  N
  N169     1.0000 0.02114  0.74733  0.49361  Biso   1.000  N
  N170     1.0000 0.52360  0.24979  0.99115  Biso   1.000  N
  N171     1.0000 0.44743  0.24979  0.49361  Biso   1.000  N
  N172     1.0000 0.94989  0.74733  0.99115  Biso   1.000  N
  N173     1.0000 0.73674  0.99856  0.95798  Biso   1.000  N
  N174     1.0000 0.23428  0.49610  0.45552  Biso   1.000  N
  N175     1.0000 0.23428  0.99856  0.53169  Biso   1.000  N
  N176     1.0000 0.73674  0.49610  0.02923  Biso   1.000  N
  N177     1.0000 0.48551  0.46293  0.24238  Biso   1.000  N
  N178     1.0000 0.98797  0.96047  0.74484  Biso   1.000  N
  N179     1.0000 0.48551  0.03664  0.74484  Biso   1.000  N
  N180     1.0000 0.98797  0.53418  0.24238  Biso   1.000  N
  N181     1.0000 0.94989  0.24979  0.49361  Biso   1.000  N
  N182     1.0000 0.44743  0.74733  0.99115  Biso   1.000  N
  N183     1.0000 0.52360  0.74733  0.49361  Biso   1.000  N
  N184     1.0000 0.02114  0.24979  0.99115  Biso   1.000  N
  N185     1.0000 0.23428  0.99856  0.02923  Biso   1.000  N
  N186     1.0000 0.73674  0.49610  0.53169  Biso   1.000  N
  N187     1.0000 0.73674  0.99856  0.45552  Biso   1.000  N
  N188     1.0000 0.23428  0.49610  0.95798  Biso   1.000  N
  N189     1.0000 0.48551  0.53418  0.74484  Biso   1.000  N
  N190     1.0000 0.98797  0.03664  0.24238  Biso   1.000  N
  N191     1.0000 0.48551  0.96047  0.24238  Biso   1.000  N
  N192     1.0000 0.98797  0.46293  0.74484  Biso   1.000  N
  O105     1.0000 0.82980  0.80230  0.34629  Biso   1.000  O
  O106     1.0000 0.32734  0.19482  0.13847  Biso   1.000  O
  O107     1.0000 0.64369  0.30476  0.64093  Biso   1.000  O
  O108     1.0000 0.14123  0.69236  0.84875  Biso   1.000  O
  O109     1.0000 0.68177  0.85124  0.14932  Biso   1.000  O
  O110     1.0000 0.28925  0.64342  0.65178  Biso   1.000  O
  O111     1.0000 0.17931  0.14588  0.33543  Biso   1.000  O
  O112     1.0000 0.79171  0.35370  0.83789  Biso   1.000  O
  O113     1.0000 0.63283  0.65427  0.29735  Biso   1.000  O
  O114     1.0000 0.84065  0.15673  0.68987  Biso   1.000  O
  O115     1.0000 0.33819  0.84038  0.79981  Biso   1.000  O
  O116     1.0000 0.13037  0.34284  0.18741  Biso   1.000  O
  O117     1.0000 0.32734  0.30476  0.84875  Biso   1.000  O
  O118     1.0000 0.82980  0.69236  0.64093  Biso   1.000  O
  O119     1.0000 0.14123  0.80230  0.13847  Biso   1.000  O
  O120     1.0000 0.64369  0.19482  0.34629  Biso   1.000  O
  O121     1.0000 0.17931  0.35370  0.65178  Biso   1.000  O
  O122     1.0000 0.79171  0.14588  0.14932  Biso   1.000  O
  O123     1.0000 0.68177  0.64342  0.83789  Biso   1.000  O
  O124     1.0000 0.28925  0.85124  0.33543  Biso   1.000  O
  O125     1.0000 0.13037  0.15673  0.79981  Biso   1.000  O
  O126     1.0000 0.33819  0.65427  0.18741  Biso   1.000  O
  O127     1.0000 0.84065  0.34284  0.29735  Biso   1.000  O
  O128     1.0000 0.63283  0.84038  0.68987  Biso   1.000  O
  O129     1.0000 0.14123  0.19482  0.64093  Biso   1.000  O
  O130     1.0000 0.64369  0.80230  0.84875  Biso   1.000  O
  O131     1.0000 0.32734  0.69236  0.34629  Biso   1.000  O
  O132     1.0000 0.82980  0.30476  0.13847  Biso   1.000  O
  O133     1.0000 0.28925  0.14588  0.83789  Biso   1.000  O
  O134     1.0000 0.68177  0.35370  0.33543  Biso   1.000  O
  O135     1.0000 0.79171  0.85124  0.65178  Biso   1.000  O
  O136     1.0000 0.17931  0.64342  0.14932  Biso   1.000  O
  O137     1.0000 0.33819  0.34284  0.68987  Biso   1.000  O
  O138     1.0000 0.13037  0.84038  0.29735  Biso   1.000  O
  O139     1.0000 0.63283  0.15673  0.18741  Biso   1.000  O
  O140     1.0000 0.84065  0.65427  0.79981  Biso   1.000  O
  O141     1.0000 0.64369  0.69236  0.13847  Biso   1.000  O
  O142     1.0000 0.14123  0.30476  0.34629  Biso   1.000  O
  O143     1.0000 0.82980  0.19482  0.84875  Biso   1.000  O
  O144     1.0000 0.32734  0.80230  0.64093  Biso   1.000  O
  O145     1.0000 0.79171  0.64342  0.33543  Biso   1.000  O
  O146     1.0000 0.17931  0.85124  0.83789  Biso   1.000  O
  O147     1.0000 0.28925  0.35370  0.14932  Biso   1.000  O
  O148     1.0000 0.68177  0.14588  0.65178  Biso   1.000  O
  O149     1.0000 0.84065  0.84038  0.18741  Biso   1.000  O
  O150     1.0000 0.63283  0.34284  0.79981  Biso   1.000  O
  O151     1.0000 0.13037  0.65427  0.68987  Biso   1.000  O
  O152     1.0000 0.33819  0.15673  0.29735  Biso   1.000  O
  O153     1.0000 0.12625  0.79396  0.34578  Biso   1.000  O
  O154     1.0000 0.62871  0.20316  0.13897  Biso   1.000  O
  O155     1.0000 0.34231  0.29642  0.64143  Biso   1.000  O
  O156     1.0000 0.84477  0.70070  0.84824  Biso   1.000  O
  O157     1.0000 0.69011  0.85073  0.85287  Biso   1.000  O
  O158     1.0000 0.28091  0.64392  0.35041  Biso   1.000  O
  O159     1.0000 0.18765  0.14638  0.63681  Biso   1.000  O
  O160     1.0000 0.78337  0.35319  0.13435  Biso   1.000  O
  O161     1.0000 0.63334  0.35782  0.28901  Biso   1.000  O
  O162     1.0000 0.84015  0.85536  0.69821  Biso   1.000  O
  O163     1.0000 0.33769  0.14176  0.79147  Biso   1.000  O
  O164     1.0000 0.13088  0.63930  0.19575  Biso   1.000  O
  O165     1.0000 0.62871  0.29642  0.84824  Biso   1.000  O
  O166     1.0000 0.12625  0.70070  0.64143  Biso   1.000  O
  O167     1.0000 0.84477  0.79396  0.13897  Biso   1.000  O
  O168     1.0000 0.34231  0.20316  0.34578  Biso   1.000  O
  O169     1.0000 0.18765  0.35319  0.35041  Biso   1.000  O
  O170     1.0000 0.78337  0.14638  0.85287  Biso   1.000  O
  O171     1.0000 0.69011  0.64392  0.13435  Biso   1.000  O
  O172     1.0000 0.28091  0.85073  0.63681  Biso   1.000  O
  O173     1.0000 0.13088  0.85536  0.79147  Biso   1.000  O
  O174     1.0000 0.33769  0.35782  0.19575  Biso   1.000  O
  O175     1.0000 0.84015  0.63930  0.28901  Biso   1.000  O
  O176     1.0000 0.63334  0.14176  0.69821  Biso   1.000  O
  O177     1.0000 0.84477  0.20316  0.64143  Biso   1.000  O
  O178     1.0000 0.34231  0.79396  0.84824  Biso   1.000  O
  O179     1.0000 0.62871  0.70070  0.34578  Biso   1.000  O
  O180     1.0000 0.12625  0.29642  0.13897  Biso   1.000  O
  O181     1.0000 0.28091  0.14638  0.13435  Biso   1.000  O
  O182     1.0000 0.69011  0.35319  0.63681  Biso   1.000  O
  O183     1.0000 0.78337  0.85073  0.35041  Biso   1.000  O
  O184     1.0000 0.18765  0.64392  0.85287  Biso   1.000  O
  O185     1.0000 0.33769  0.63930  0.69821  Biso   1.000  O
  O186     1.0000 0.13088  0.14176  0.28901  Biso   1.000  O
  O187     1.0000 0.63334  0.85536  0.19575  Biso   1.000  O
  O188     1.0000 0.84015  0.35782  0.79147  Biso   1.000  O
  O189     1.0000 0.34231  0.70070  0.13897  Biso   1.000  O
  O190     1.0000 0.84477  0.29642  0.34578  Biso   1.000  O
  O191     1.0000 0.12625  0.20316  0.84824  Biso   1.000  O
  O192     1.0000 0.62871  0.79396  0.64143  Biso   1.000  O
  O193     1.0000 0.78337  0.64392  0.63681  Biso   1.000  O
  O194     1.0000 0.18765  0.85073  0.13435  Biso   1.000  O
  O195     1.0000 0.28091  0.35319  0.85287  Biso   1.000  O
  O196     1.0000 0.69011  0.14638  0.35041  Biso   1.000  O
  O197     1.0000 0.84015  0.14176  0.19575  Biso   1.000  O
  O198     1.0000 0.63334  0.63930  0.79147  Biso   1.000  O
  O199     1.0000 0.13088  0.35782  0.69821  Biso   1.000  O
  O200     1.0000 0.33769  0.85536  0.28901  Biso   1.000  O
  O201     1.0000 0.86919  0.66311  0.37010  Biso   1.000  O
  O202     1.0000 0.36673  0.33400  0.11465  Biso   1.000  O
  O203     1.0000 0.60429  0.16558  0.61711  Biso   1.000  O
  O204     1.0000 0.10183  0.83154  0.87256  Biso   1.000  O
  O205     1.0000 0.82095  0.87505  0.10993  Biso   1.000  O
  O206     1.0000 0.15007  0.61960  0.61239  Biso   1.000  O
  O207     1.0000 0.31849  0.12206  0.37483  Biso   1.000  O
  O208     1.0000 0.65253  0.37751  0.87729  Biso   1.000  O
  O209     1.0000 0.60902  0.61488  0.15816  Biso   1.000  O
  O210     1.0000 0.86447  0.11734  0.82905  Biso   1.000  O
  O211     1.0000 0.36201  0.87978  0.66063  Biso   1.000  O
  O212     1.0000 0.10656  0.38224  0.32659  Biso   1.000  O
  O213     1.0000 0.36673  0.16558  0.87256  Biso   1.000  O
  O214     1.0000 0.86919  0.83154  0.61711  Biso   1.000  O
  O215     1.0000 0.10183  0.66311  0.11465  Biso   1.000  O
  O216     1.0000 0.60429  0.33400  0.37010  Biso   1.000  O
  O217     1.0000 0.31849  0.37751  0.61239  Biso   1.000  O
  O218     1.0000 0.65253  0.12206  0.10993  Biso   1.000  O
  O219     1.0000 0.82095  0.61960  0.87729  Biso   1.000  O
  O220     1.0000 0.15007  0.87505  0.37483  Biso   1.000  O
  O221     1.0000 0.10656  0.11734  0.66063  Biso   1.000  O
  O222     1.0000 0.36201  0.61488  0.32659  Biso   1.000  O
  O223     1.0000 0.86447  0.38224  0.15816  Biso   1.000  O
  O224     1.0000 0.60902  0.87978  0.82905  Biso   1.000  O
  O225     1.0000 0.10183  0.33400  0.61711  Biso   1.000  O
  O226     1.0000 0.60429  0.66311  0.87256  Biso   1.000  O
  O227     1.0000 0.36673  0.83154  0.37010  Biso   1.000  O
  O228     1.0000 0.86919  0.16558  0.11465  Biso   1.000  O
  O229     1.0000 0.15007  0.12206  0.87729  Biso   1.000  O
  O230     1.0000 0.82095  0.37751  0.37483  Biso   1.000  O
  O231     1.0000 0.65253  0.87505  0.61239  Biso   1.000  O
  O232     1.0000 0.31849  0.61960  0.10993  Biso   1.000  O
  O233     1.0000 0.36201  0.38224  0.82905  Biso   1.000  O
  O234     1.0000 0.10656  0.87978  0.15816  Biso   1.000  O
  O235     1.0000 0.60902  0.11734  0.32659  Biso   1.000  O
  O236     1.0000 0.86447  0.61488  0.66063  Biso   1.000  O
  O237     1.0000 0.60429  0.83154  0.11465  Biso   1.000  O
  O238     1.0000 0.10183  0.16558  0.37010  Biso   1.000  O
  O239     1.0000 0.86919  0.33400  0.87256  Biso   1.000  O
  O240     1.0000 0.36673  0.66311  0.61711  Biso   1.000  O
  O241     1.0000 0.65253  0.61960  0.37483  Biso   1.000  O
  O242     1.0000 0.31849  0.87505  0.87729  Biso   1.000  O
  O243     1.0000 0.15007  0.37751  0.10993  Biso   1.000  O
  O244     1.0000 0.82095  0.12206  0.61239  Biso   1.000  O
  O245     1.0000 0.86447  0.87978  0.32659  Biso   1.000  O
  O246     1.0000 0.60902  0.38224  0.66063  Biso   1.000  O
  O247     1.0000 0.10656  0.61488  0.82905  Biso   1.000  O
  O248     1.0000 0.36201  0.11734  0.15816  Biso   1.000  O
  O249     1.0000 0.09741  0.82280  0.37593  Biso   1.000  O
  O250     1.0000 0.59987  0.17432  0.10882  Biso   1.000  O
  O251     1.0000 0.37115  0.32526  0.61128  Biso   1.000  O
  O252     1.0000 0.87361  0.67186  0.87839  Biso   1.000  O
  O253     1.0000 0.66127  0.88088  0.88171  Biso   1.000  O
  O254     1.0000 0.30975  0.61377  0.37925  Biso   1.000  O
  O255     1.0000 0.15881  0.11623  0.60797  Biso   1.000  O
  O256     1.0000 0.81221  0.38334  0.10551  Biso   1.000  O
  O257     1.0000 0.60319  0.38666  0.31785  Biso   1.000  O
  O258     1.0000 0.87030  0.88420  0.66937  Biso   1.000  O
  O259     1.0000 0.36784  0.11292  0.82031  Biso   1.000  O
  O260     1.0000 0.10073  0.61046  0.16691  Biso   1.000  O
  O261     1.0000 0.59987  0.32526  0.87839  Biso   1.000  O
  O262     1.0000 0.09741  0.67186  0.61128  Biso   1.000  O
  O263     1.0000 0.87361  0.82280  0.10882  Biso   1.000  O
  O264     1.0000 0.37115  0.17432  0.37593  Biso   1.000  O
  O265     1.0000 0.15881  0.38334  0.37925  Biso   1.000  O
  O266     1.0000 0.81221  0.11623  0.88171  Biso   1.000  O
  O267     1.0000 0.66127  0.61377  0.10551  Biso   1.000  O
  O268     1.0000 0.30975  0.88088  0.60797  Biso   1.000  O
  O269     1.0000 0.10073  0.88420  0.82031  Biso   1.000  O
  O270     1.0000 0.36784  0.38666  0.16691  Biso   1.000  O
  O271     1.0000 0.87030  0.61046  0.31785  Biso   1.000  O
  O272     1.0000 0.60319  0.11292  0.66937  Biso   1.000  O
  O273     1.0000 0.87361  0.17432  0.61128  Biso   1.000  O
  O274     1.0000 0.37115  0.82280  0.87839  Biso   1.000  O
  O275     1.0000 0.59987  0.67186  0.37593  Biso   1.000  O
  O276     1.0000 0.09741  0.32526  0.10882  Biso   1.000  O
  O277     1.0000 0.30975  0.11623  0.10551  Biso   1.000  O
  O278     1.0000 0.66127  0.38334  0.60797  Biso   1.000  O
  O279     1.0000 0.81221  0.88088  0.37925  Biso   1.000  O
  O280     1.0000 0.15881  0.61377  0.88171  Biso   1.000  O
  O281     1.0000 0.36784  0.61046  0.66937  Biso   1.000  O
  O282     1.0000 0.10073  0.11292  0.31785  Biso   1.000  O
  O283     1.0000 0.60319  0.88420  0.16691  Biso   1.000  O
  O284     1.0000 0.87030  0.38666  0.82031  Biso   1.000  O
  O285     1.0000 0.37115  0.67186  0.10882  Biso   1.000  O
  O286     1.0000 0.87361  0.32526  0.37593  Biso   1.000  O
  O287     1.0000 0.09741  0.17432  0.87839  Biso   1.000  O
  O288     1.0000 0.59987  0.82280  0.61128  Biso   1.000  O
  O289     1.0000 0.81221  0.61377  0.60797  Biso   1.000  O
  O290     1.0000 0.15881  0.88088  0.10551  Biso   1.000  O
  O291     1.0000 0.30975  0.38334  0.88171  Biso   1.000  O
  O292     1.0000 0.66127  0.11623  0.37925  Biso   1.000  O
  O293     1.0000 0.87030  0.11292  0.16691  Biso   1.000  O
  O294     1.0000 0.60319  0.61046  0.82031  Biso   1.000  O
  O295     1.0000 0.10073  0.38666  0.66937  Biso   1.000  O
  O296     1.0000 0.36784  0.88420  0.31785  Biso   1.000  O
  O297     1.0000 0.85884  0.82742  0.38196  Biso   1.000  O
  O298     1.0000 0.35638  0.16970  0.10279  Biso   1.000  O
  O299     1.0000 0.61464  0.32988  0.60525  Biso   1.000  O
  O300     1.0000 0.11218  0.66724  0.88442  Biso   1.000  O
  O301     1.0000 0.65665  0.88691  0.12028  Biso   1.000  O
  O302     1.0000 0.31437  0.60774  0.62274  Biso   1.000  O
  O303     1.0000 0.15419  0.11020  0.36448  Biso   1.000  O
  O304     1.0000 0.81683  0.38937  0.86694  Biso   1.000  O
  O305     1.0000 0.59716  0.62523  0.32247  Biso   1.000  O
  O306     1.0000 0.87633  0.12769  0.66475  Biso   1.000  O
  O307     1.0000 0.37387  0.86943  0.82493  Biso   1.000  O
  O308     1.0000 0.09470  0.37189  0.16228  Biso   1.000  O
  O309     1.0000 0.35638  0.32988  0.88442  Biso   1.000  O
  O310     1.0000 0.85884  0.66724  0.60525  Biso   1.000  O
  O311     1.0000 0.11218  0.82742  0.10279  Biso   1.000  O
  O312     1.0000 0.61464  0.16970  0.38196  Biso   1.000  O
  O313     1.0000 0.15419  0.38937  0.62274  Biso   1.000  O
  O314     1.0000 0.81683  0.11020  0.12028  Biso   1.000  O
  O315     1.0000 0.65665  0.60774  0.86694  Biso   1.000  O
  O316     1.0000 0.31437  0.88691  0.36448  Biso   1.000  O
  O317     1.0000 0.09470  0.12769  0.82493  Biso   1.000  O
  O318     1.0000 0.37387  0.62523  0.16228  Biso   1.000  O
  O319     1.0000 0.87633  0.37189  0.32247  Biso   1.000  O
  O320     1.0000 0.59716  0.86943  0.66475  Biso   1.000  O
  O321     1.0000 0.11218  0.16970  0.60525  Biso   1.000  O
  O322     1.0000 0.61464  0.82742  0.88442  Biso   1.000  O
  O323     1.0000 0.35638  0.66724  0.38196  Biso   1.000  O
  O324     1.0000 0.85884  0.32988  0.10279  Biso   1.000  O
  O325     1.0000 0.31437  0.11020  0.86694  Biso   1.000  O
  O326     1.0000 0.65665  0.38937  0.36448  Biso   1.000  O
  O327     1.0000 0.81683  0.88691  0.62274  Biso   1.000  O
  O328     1.0000 0.15419  0.60774  0.12028  Biso   1.000  O
  O329     1.0000 0.37387  0.37189  0.66475  Biso   1.000  O
  O330     1.0000 0.09470  0.86943  0.32247  Biso   1.000  O
  O331     1.0000 0.59716  0.12769  0.16228  Biso   1.000  O
  O332     1.0000 0.87633  0.62523  0.82493  Biso   1.000  O
  O333     1.0000 0.61464  0.66724  0.10279  Biso   1.000  O
  O334     1.0000 0.11218  0.32988  0.38196  Biso   1.000  O
  O335     1.0000 0.85884  0.16970  0.88442  Biso   1.000  O
  O336     1.0000 0.35638  0.82742  0.60525  Biso   1.000  O
  O337     1.0000 0.81683  0.60774  0.36448  Biso   1.000  O
  O338     1.0000 0.15419  0.88691  0.86694  Biso   1.000  O
  O339     1.0000 0.31437  0.38937  0.12028  Biso   1.000  O
  O340     1.0000 0.65665  0.11020  0.62274  Biso   1.000  O
  O341     1.0000 0.87633  0.86943  0.16228  Biso   1.000  O
  O342     1.0000 0.59716  0.37189  0.82493  Biso   1.000  O
  O343     1.0000 0.09470  0.62523  0.66475  Biso   1.000  O
  O344     1.0000 0.37387  0.12769  0.32247  Biso   1.000  O
  O345     1.0000 0.09138  0.65749  0.38347  Biso   1.000  O
  O346     1.0000 0.59384  0.33963  0.10129  Biso   1.000  O
  O347     1.0000 0.37718  0.15995  0.60375  Biso   1.000  O
  O348     1.0000 0.87964  0.83717  0.88593  Biso   1.000  O
  O349     1.0000 0.82658  0.88842  0.88774  Biso   1.000  O
  O350     1.0000 0.14444  0.60624  0.38528  Biso   1.000  O
  O351     1.0000 0.32412  0.10870  0.60194  Biso   1.000  O
  O352     1.0000 0.64690  0.39088  0.09948  Biso   1.000  O
  O353     1.0000 0.59565  0.39269  0.15254  Biso   1.000  O
  O354     1.0000 0.87783  0.89023  0.83468  Biso   1.000  O
  O355     1.0000 0.37537  0.10689  0.65500  Biso   1.000  O
  O356     1.0000 0.09319  0.60443  0.33222  Biso   1.000  O
  O357     1.0000 0.59384  0.15995  0.88593  Biso   1.000  O
  O358     1.0000 0.09138  0.83717  0.60375  Biso   1.000  O
  O359     1.0000 0.87964  0.65749  0.10129  Biso   1.000  O
  O360     1.0000 0.37718  0.33963  0.38347  Biso   1.000  O
  O361     1.0000 0.32412  0.39088  0.38528  Biso   1.000  O
  O362     1.0000 0.64690  0.10870  0.88774  Biso   1.000  O
  O363     1.0000 0.82658  0.60624  0.09948  Biso   1.000  O
  O364     1.0000 0.14444  0.88842  0.60194  Biso   1.000  O
  O365     1.0000 0.09319  0.89023  0.65500  Biso   1.000  O
  O366     1.0000 0.37537  0.39269  0.33222  Biso   1.000  O
  O367     1.0000 0.87783  0.60443  0.15254  Biso   1.000  O
  O368     1.0000 0.59565  0.10689  0.83468  Biso   1.000  O
  O369     1.0000 0.87964  0.33963  0.60375  Biso   1.000  O
  O370     1.0000 0.37718  0.65749  0.88593  Biso   1.000  O
  O371     1.0000 0.59384  0.83717  0.38347  Biso   1.000  O
  O372     1.0000 0.09138  0.15995  0.10129  Biso   1.000  O
  O373     1.0000 0.14444  0.10870  0.09948  Biso   1.000  O
  O374     1.0000 0.82658  0.39088  0.60194  Biso   1.000  O
  O375     1.0000 0.64690  0.88842  0.38528  Biso   1.000  O
  O376     1.0000 0.32412  0.60624  0.88774  Biso   1.000  O
  O377     1.0000 0.37537  0.60443  0.83468  Biso   1.000  O
  O378     1.0000 0.09319  0.10689  0.15254  Biso   1.000  O
  O379     1.0000 0.59565  0.89023  0.33222  Biso   1.000  O
  O380     1.0000 0.87783  0.39269  0.65500  Biso   1.000  O
  O381     1.0000 0.37718  0.83717  0.10129  Biso   1.000  O
  O382     1.0000 0.87964  0.15995  0.38347  Biso   1.000  O
  O383     1.0000 0.09138  0.33963  0.88593  Biso   1.000  O
  O384     1.0000 0.59384  0.65749  0.60375  Biso   1.000  O
  O385     1.0000 0.64690  0.60624  0.60194  Biso   1.000  O
  O386     1.0000 0.32412  0.88842  0.09948  Biso   1.000  O
  O387     1.0000 0.14444  0.39088  0.88774  Biso   1.000  O
  O388     1.0000 0.82658  0.10870  0.38528  Biso   1.000  O
  O389     1.0000 0.87783  0.10689  0.33222  Biso   1.000  O
  O390     1.0000 0.59565  0.60443  0.65500  Biso   1.000  O
  O391     1.0000 0.09319  0.39269  0.83468  Biso   1.000  O
  O392     1.0000 0.37537  0.89023  0.15254  Biso   1.000  O
  O393     1.0000 0.84286  0.69025  0.33463  Biso   1.000  O
  O394     1.0000 0.34040  0.30687  0.15013  Biso   1.000  O
  O395     1.0000 0.63062  0.19271  0.65259  Biso   1.000  O
  O396     1.0000 0.12816  0.80441  0.83709  Biso   1.000  O
  O397     1.0000 0.79382  0.83958  0.13626  Biso   1.000  O
  O398     1.0000 0.17720  0.65508  0.63872  Biso   1.000  O
  O399     1.0000 0.29136  0.15754  0.34850  Biso   1.000  O
  O400     1.0000 0.67966  0.34204  0.85096  Biso   1.000  O
  O401     1.0000 0.64449  0.64121  0.18530  Biso   1.000  O
  O402     1.0000 0.82899  0.14367  0.80192  Biso   1.000  O
  O403     1.0000 0.32653  0.85345  0.68776  Biso   1.000  O
  O404     1.0000 0.14203  0.35591  0.29946  Biso   1.000  O
  O405     1.0000 0.34040  0.19271  0.83709  Biso   1.000  O
  O406     1.0000 0.84286  0.80441  0.65259  Biso   1.000  O
  O407     1.0000 0.12816  0.69025  0.15013  Biso   1.000  O
  O408     1.0000 0.63062  0.30687  0.33463  Biso   1.000  O
  O409     1.0000 0.29136  0.34204  0.63872  Biso   1.000  O
  O410     1.0000 0.67966  0.15754  0.13626  Biso   1.000  O
  O411     1.0000 0.79382  0.65508  0.85096  Biso   1.000  O
  O412     1.0000 0.17720  0.83958  0.34850  Biso   1.000  O
  O413     1.0000 0.14203  0.14367  0.68776  Biso   1.000  O
  O414     1.0000 0.32653  0.64121  0.29946  Biso   1.000  O
  O415     1.0000 0.82899  0.35591  0.18530  Biso   1.000  O
  O416     1.0000 0.64449  0.85345  0.80192  Biso   1.000  O
  O417     1.0000 0.12816  0.30687  0.65259  Biso   1.000  O
  O418     1.0000 0.63062  0.69025  0.83709  Biso   1.000  O
  O419     1.0000 0.34040  0.80441  0.33463  Biso   1.000  O
  O420     1.0000 0.84286  0.19271  0.15013  Biso   1.000  O
  O421     1.0000 0.17720  0.15754  0.85096  Biso   1.000  O
  O422     1.0000 0.79382  0.34204  0.34850  Biso   1.000  O
  O423     1.0000 0.67966  0.83958  0.63872  Biso   1.000  O
  O424     1.0000 0.29136  0.65508  0.13626  Biso   1.000  O
  O425     1.0000 0.32653  0.35591  0.80192  Biso   1.000  O
  O426     1.0000 0.14203  0.85345  0.18530  Biso   1.000  O
  O427     1.0000 0.64449  0.14367  0.29946  Biso   1.000  O
  O428     1.0000 0.82899  0.64121  0.68776  Biso   1.000  O
  O429     1.0000 0.63062  0.80441  0.15013  Biso   1.000  O
  O430     1.0000 0.12816  0.19271  0.33463  Biso   1.000  O
  O431     1.0000 0.84286  0.30687  0.83709  Biso   1.000  O
  O432     1.0000 0.34040  0.69025  0.65259  Biso   1.000  O
  O433     1.0000 0.67966  0.65508  0.34850  Biso   1.000  O
  O434     1.0000 0.29136  0.83958  0.85096  Biso   1.000  O
  O435     1.0000 0.17720  0.34204  0.13626  Biso   1.000  O
  O436     1.0000 0.79382  0.15754  0.63872  Biso   1.000  O
  O437     1.0000 0.82899  0.85345  0.29946  Biso   1.000  O
  O438     1.0000 0.64449  0.35591  0.68776  Biso   1.000  O
  O439     1.0000 0.14203  0.64121  0.80192  Biso   1.000  O
  O440     1.0000 0.32653  0.14367  0.18530  Biso   1.000  O
  O441     1.0000 0.13027  0.68452  0.36056  Biso   1.000  O
  O442     1.0000 0.63273  0.31260  0.12420  Biso   1.000  O
  O443     1.0000 0.33829  0.18698  0.62666  Biso   1.000  O
  O444     1.0000 0.84075  0.81013  0.86302  Biso   1.000  O
  O445     1.0000 0.79955  0.86551  0.84885  Biso   1.000  O
  O446     1.0000 0.17147  0.62915  0.34639  Biso   1.000  O
  O447     1.0000 0.29709  0.13161  0.64083  Biso   1.000  O
  O448     1.0000 0.67393  0.36797  0.13837  Biso   1.000  O
  O449     1.0000 0.61856  0.35380  0.17957  Biso   1.000  O
  O450     1.0000 0.85492  0.85134  0.80765  Biso   1.000  O
  O451     1.0000 0.35246  0.14578  0.68203  Biso   1.000  O
  O452     1.0000 0.11610  0.64332  0.30518  Biso   1.000  O
  O453     1.0000 0.63273  0.18698  0.86302  Biso   1.000  O
  O454     1.0000 0.13027  0.81013  0.62666  Biso   1.000  O
  O455     1.0000 0.84075  0.68452  0.12420  Biso   1.000  O
  O456     1.0000 0.33829  0.31260  0.36056  Biso   1.000  O
  O457     1.0000 0.29709  0.36797  0.34639  Biso   1.000  O
  O458     1.0000 0.67393  0.13161  0.84885  Biso   1.000  O
  O459     1.0000 0.79955  0.62915  0.13837  Biso   1.000  O
  O460     1.0000 0.17147  0.86551  0.64083  Biso   1.000  O
  O461     1.0000 0.11610  0.85134  0.68203  Biso   1.000  O
  O462     1.0000 0.35246  0.35380  0.30518  Biso   1.000  O
  O463     1.0000 0.85492  0.64332  0.17957  Biso   1.000  O
  O464     1.0000 0.61856  0.14578  0.80765  Biso   1.000  O
  O465     1.0000 0.84075  0.31260  0.62666  Biso   1.000  O
  O466     1.0000 0.33829  0.68452  0.86302  Biso   1.000  O
  O467     1.0000 0.63273  0.81013  0.36056  Biso   1.000  O
  O468     1.0000 0.13027  0.18698  0.12420  Biso   1.000  O
  O469     1.0000 0.17147  0.13161  0.13837  Biso   1.000  O
  O470     1.0000 0.79955  0.36797  0.64083  Biso   1.000  O
  O471     1.0000 0.67393  0.86551  0.34639  Biso   1.000  O
  O472     1.0000 0.29709  0.62915  0.84885  Biso   1.000  O
  O473     1.0000 0.35246  0.64332  0.80765  Biso   1.000  O
  O474     1.0000 0.11610  0.14578  0.17957  Biso   1.000  O
  O475     1.0000 0.61856  0.85134  0.30518  Biso   1.000  O
  O476     1.0000 0.85492  0.35380  0.68203  Biso   1.000  O
  O477     1.0000 0.33829  0.81013  0.12420  Biso   1.000  O
  O478     1.0000 0.84075  0.18698  0.36056  Biso   1.000  O
  O479     1.0000 0.13027  0.31260  0.86302  Biso   1.000  O
  O480     1.0000 0.63273  0.68452  0.62666  Biso   1.000  O
  O481     1.0000 0.67393  0.62915  0.64083  Biso   1.000  O
  O482     1.0000 0.29709  0.86551  0.13837  Biso   1.000  O
  O483     1.0000 0.17147  0.36797  0.84885  Biso   1.000  O
  O484     1.0000 0.79955  0.13161  0.34639  Biso   1.000  O
  O485     1.0000 0.85492  0.14578  0.30518  Biso   1.000  O
  O486     1.0000 0.61856  0.64332  0.68203  Biso   1.000  O
  O487     1.0000 0.11610  0.35380  0.80765  Biso   1.000  O
  O488     1.0000 0.35246  0.85134  0.17957  Biso   1.000  O
  O489     1.0000 0.07018  0.58322  0.40648  Biso   1.000  O
  O490     1.0000 0.57264  0.41389  0.07827  Biso   1.000  O
  O491     1.0000 0.39839  0.08568  0.58073  Biso   1.000  O
  O492     1.0000 0.90085  0.91143  0.90894  Biso   1.000  O
  O493     1.0000 0.57264  0.08568  0.90894  Biso   1.000  O
  O494     1.0000 0.07018  0.91143  0.58073  Biso   1.000  O
  O495     1.0000 0.90085  0.58322  0.07827  Biso   1.000  O
  O496     1.0000 0.39839  0.41389  0.40648  Biso   1.000  O
  O497     1.0000 0.90085  0.41389  0.58073  Biso   1.000  O
  O498     1.0000 0.39839  0.58322  0.90894  Biso   1.000  O
  O499     1.0000 0.57264  0.91143  0.40648  Biso   1.000  O
  O500     1.0000 0.07018  0.08568  0.07827  Biso   1.000  O
  O501     1.0000 0.39839  0.91143  0.07827  Biso   1.000  O
  O502     1.0000 0.90085  0.08568  0.40648  Biso   1.000  O
  O503     1.0000 0.07018  0.41389  0.90894  Biso   1.000  O
  O504     1.0000 0.57264  0.58322  0.58073  Biso   1.000  O
