data_image0
_cell_length_a       20.627
_cell_length_b       20.627
_cell_length_c       20.627
_cell_angle_alpha    60
_cell_angle_beta     60
_cell_angle_gamma    60

_symmetry_space_group_name_H-M    "P 1"
_symmetry_int_tables_number       1

loop_
  _symmetry_equiv_pos_as_xyz
  'x, y, z'

loop_
  _atom_site_label
  _atom_site_occupancy
  _atom_site_fract_x
  _atom_site_fract_y
  _atom_site_fract_z
  _atom_site_thermal_displace_type
  _atom_site_B_iso_or_equiv
  _atom_site_type_symbol
  Zn1      1.0000 0.13471  0.28843  0.28843  Biso   1.000  Zn
  Zn2      1.0000 0.28843  0.13471  0.28843  Biso   1.000  Zn
  Zn3      1.0000 0.28843  0.28843  0.13471  Biso   1.000  Zn
  Zn4      1.0000 0.28843  0.28843  0.28843  Biso   1.000  Zn
  Zn5      1.0000 0.71157  0.86529  0.71157  Biso   1.000  Zn
  Zn6      1.0000 0.86529  0.71157  0.71157  Biso   1.000  Zn
  Zn7      1.0000 0.71157  0.71157  0.86529  Biso   1.000  Zn
  Zn8      1.0000 0.71157  0.71157  0.71157  Biso   1.000  Zn
  C1       1.0000 0.96900  0.03100  0.50000  Biso   1.000  C
  C2       1.0000 0.03100  0.96900  0.50000  Biso   1.000  C
  C3       1.0000 0.50000  0.50000  0.96900  Biso   1.000  C
  C4       1.0000 0.50000  0.50000  0.03100  Biso   1.000  C
  C5       1.0000 0.96900  0.50000  0.50000  Biso   1.000  C
  C6       1.0000 0.03100  0.50000  0.50000  Biso   1.000  C
  C7       1.0000 0.50000  0.96900  0.03100  Biso   1.000  C
  C8       1.0000 0.50000  0.03100  0.96900  Biso   1.000  C
  C9       1.0000 0.96900  0.50000  0.03100  Biso   1.000  C
  C10      1.0000 0.03100  0.50000  0.96900  Biso   1.000  C
  C11      1.0000 0.50000  0.03100  0.50000  Biso   1.000  C
  C12      1.0000 0.50000  0.96900  0.50000  Biso   1.000  C
  C13      1.0000 0.12720  0.12720  0.37280  Biso   1.000  C
  C14      1.0000 0.07800  0.07800  0.42200  Biso   1.000  C
  C15      1.0000 0.37280  0.37280  0.12720  Biso   1.000  C
  C16      1.0000 0.42200  0.42200  0.07800  Biso   1.000  C
  C17      1.0000 0.12720  0.37280  0.37280  Biso   1.000  C
  C18      1.0000 0.07800  0.42200  0.42200  Biso   1.000  C
  C19      1.0000 0.37280  0.12720  0.12720  Biso   1.000  C
  C20      1.0000 0.42200  0.07800  0.07800  Biso   1.000  C
  C21      1.0000 0.12720  0.37280  0.12720  Biso   1.000  C
  C22      1.0000 0.07800  0.42200  0.07800  Biso   1.000  C
  C23      1.0000 0.37280  0.12720  0.37280  Biso   1.000  C
  C24      1.0000 0.42200  0.07800  0.42200  Biso   1.000  C
  C25      1.0000 0.87280  0.87280  0.62720  Biso   1.000  C
  C26      1.0000 0.92200  0.92200  0.57800  Biso   1.000  C
  C27      1.0000 0.62720  0.62720  0.87280  Biso   1.000  C
  C28      1.0000 0.57800  0.57800  0.92200  Biso   1.000  C
  C29      1.0000 0.62720  0.87280  0.62720  Biso   1.000  C
  C30      1.0000 0.57800  0.92200  0.57800  Biso   1.000  C
  C31      1.0000 0.87280  0.62720  0.87280  Biso   1.000  C
  C32      1.0000 0.92200  0.57800  0.92200  Biso   1.000  C
  C33      1.0000 0.62720  0.87280  0.87280  Biso   1.000  C
  C34      1.0000 0.57800  0.92200  0.92200  Biso   1.000  C
  C35      1.0000 0.87280  0.62720  0.62720  Biso   1.000  C
  C36      1.0000 0.92200  0.57800  0.57800  Biso   1.000  C
  C37      1.0000 0.97640  0.12880  0.44740  Biso   1.000  C
  S1       1.0000 0.12880  0.97640  0.44740  Biso   1.000  S
  S2       1.0000 0.44740  0.44740  0.97640  Biso   1.000  S
  C38      1.0000 0.44740  0.44740  0.12880  Biso   1.000  C
  C39      1.0000 0.97640  0.44740  0.44740  Biso   1.000  C
  S3       1.0000 0.12880  0.44740  0.44740  Biso   1.000  S
  S4       1.0000 0.44740  0.97640  0.12880  Biso   1.000  S
  C40      1.0000 0.44740  0.12880  0.97640  Biso   1.000  C
  S5       1.0000 0.97640  0.44740  0.12880  Biso   1.000  S
  C41      1.0000 0.12880  0.44740  0.97640  Biso   1.000  C
  S6       1.0000 0.44740  0.12880  0.44740  Biso   1.000  S
  C42      1.0000 0.44740  0.97640  0.44740  Biso   1.000  C
  C43      1.0000 0.87120  0.02360  0.55260  Biso   1.000  C
  S7       1.0000 0.02360  0.87120  0.55260  Biso   1.000  S
  C44      1.0000 0.55260  0.55260  0.02360  Biso   1.000  C
  S8       1.0000 0.55260  0.55260  0.87120  Biso   1.000  S
  S9       1.0000 0.55260  0.02360  0.55260  Biso   1.000  S
  C45      1.0000 0.55260  0.87120  0.55260  Biso   1.000  C
  C46      1.0000 0.02360  0.55260  0.87120  Biso   1.000  C
  S10      1.0000 0.87120  0.55260  0.02360  Biso   1.000  S
  C47      1.0000 0.55260  0.02360  0.87120  Biso   1.000  C
  S11      1.0000 0.55260  0.87120  0.02360  Biso   1.000  S
  C48      1.0000 0.87120  0.55260  0.55260  Biso   1.000  C
  S12      1.0000 0.02360  0.55260  0.55260  Biso   1.000  S
  O1       1.0000 0.25000  0.25000  0.25000  Biso   1.000  O
  O2       1.0000 0.75000  0.75000  0.75000  Biso   1.000  O
  O3       1.0000 0.09450  0.20050  0.35250  Biso   1.000  O
  O4       1.0000 0.20050  0.09450  0.35250  Biso   1.000  O
  O5       1.0000 0.35250  0.35250  0.09450  Biso   1.000  O
  O6       1.0000 0.35250  0.35250  0.20050  Biso   1.000  O
  O7       1.0000 0.09450  0.35250  0.35250  Biso   1.000  O
  O8       1.0000 0.20050  0.35250  0.35250  Biso   1.000  O
  O9       1.0000 0.35250  0.09450  0.20050  Biso   1.000  O
  O10      1.0000 0.35250  0.20050  0.09450  Biso   1.000  O
  O11      1.0000 0.09450  0.35250  0.20050  Biso   1.000  O
  O12      1.0000 0.20050  0.35250  0.09450  Biso   1.000  O
  O13      1.0000 0.35250  0.20050  0.35250  Biso   1.000  O
  O14      1.0000 0.35250  0.09450  0.35250  Biso   1.000  O
  O15      1.0000 0.79950  0.90550  0.64750  Biso   1.000  O
  O16      1.0000 0.90550  0.79950  0.64750  Biso   1.000  O
  O17      1.0000 0.64750  0.64750  0.90550  Biso   1.000  O
  O18      1.0000 0.64750  0.64750  0.79950  Biso   1.000  O
  O19      1.0000 0.64750  0.90550  0.64750  Biso   1.000  O
  O20      1.0000 0.64750  0.79950  0.64750  Biso   1.000  O
  O21      1.0000 0.90550  0.64750  0.79950  Biso   1.000  O
  O22      1.0000 0.79950  0.64750  0.90550  Biso   1.000  O
  O23      1.0000 0.64750  0.90550  0.79950  Biso   1.000  O
  O24      1.0000 0.64750  0.79950  0.90550  Biso   1.000  O
  O25      1.0000 0.79950  0.64750  0.64750  Biso   1.000  O
  O26      1.0000 0.90550  0.64750  0.64750  Biso   1.000  O
  C49      1.0000 0.44828  0.44828  0.18318  Biso   1.000  C
  C50      1.0000 0.55172  0.55172  0.07973  Biso   1.000  C
  H1       1.0000 0.48116  0.48941  0.16342  Biso   1.000  H
  H2       1.0000 0.47978  0.38569  0.21764  Biso   1.000  H
  H3       1.0000 0.38476  0.47060  0.22285  Biso   1.000  H
  H4       1.0000 0.52027  0.50933  0.13391  Biso   1.000  H
  H5       1.0000 0.51879  0.61401  0.08395  Biso   1.000  H
  H6       1.0000 0.61524  0.53096  0.07746  Biso   1.000  H
  C51      1.0000 0.95328  0.42512  0.42512  Biso   1.000  C
  C52      1.0000 0.81682  0.55172  0.55172  Biso   1.000  C
  H7       1.0000 0.97070  0.35770  0.45232  Biso   1.000  H
  H8       1.0000 0.98017  0.44279  0.35767  Biso   1.000  H
  H9       1.0000 0.88584  0.45258  0.44309  Biso   1.000  H
  H10      1.0000 0.81035  0.49054  0.58974  Biso   1.000  H
  H11      1.0000 0.82420  0.56535  0.48808  Biso   1.000  H
  H12      1.0000 0.76154  0.59841  0.57648  Biso   1.000  H
  C53      1.0000 0.42512  0.19649  0.95328  Biso   1.000  C
  C54      1.0000 0.57488  0.04672  0.80351  Biso   1.000  C
  H13      1.0000 0.40567  0.21863  0.90076  Biso   1.000  H
  H14      1.0000 0.47484  0.21893  0.93345  Biso   1.000  H
  H15      1.0000 0.52267  0.09167  0.78130  Biso   1.000  H
  H16      1.0000 0.61960  0.07653  0.78116  Biso   1.000  H
  C55      1.0000 0.42512  0.95328  0.42512  Biso   1.000  C
  C56      1.0000 0.55172  0.81682  0.55172  Biso   1.000  C
  H17      1.0000 0.44327  0.88582  0.45242  Biso   1.000  H
  H18      1.0000 0.45215  0.97089  0.35768  Biso   1.000  H
  H19      1.0000 0.35765  0.98000  0.44298  Biso   1.000  H
  H20      1.0000 0.58352  0.76084  0.59273  Biso   1.000  H
  H21      1.0000 0.58316  0.81471  0.48866  Biso   1.000  H
  H22      1.0000 0.48762  0.82053  0.57291  Biso   1.000  H
  C57      1.0000 0.18318  0.44828  0.92027  Biso   1.000  C
  C58      1.0000 0.04672  0.57488  0.80351  Biso   1.000  C
  H23      1.0000 0.16407  0.47422  0.86662  Biso   1.000  H
  H24      1.0000 0.22651  0.38514  0.92522  Biso   1.000  H
  H25      1.0000 0.21333  0.48634  0.91285  Biso   1.000  H
  H26      1.0000 0.07679  0.52267  0.78116  Biso   1.000  H
  H27      1.0000 0.09145  0.60463  0.78130  Biso   1.000  H
  C59      1.0000 0.92027  0.18318  0.44828  Biso   1.000  C
  C60      1.0000 0.81682  0.07973  0.55172  Biso   1.000  C
  H28      1.0000 0.86812  0.16567  0.50121  Biso   1.000  H
  H29      1.0000 0.90755  0.20768  0.39102  Biso   1.000  H
  H30      1.0000 0.92902  0.23056  0.45347  Biso   1.000  H
  H31      1.0000 0.76327  0.06519  0.60463  Biso   1.000  H
  H32      1.0000 0.80450  0.10388  0.49432  Biso   1.000  H
  H33      1.0000 0.82832  0.12625  0.55535  Biso   1.000  H
  H34      1.0000 0.37256  0.21958  0.00250  Biso   1.000  H
  H35      1.0000 0.99505  0.61963  0.78040  Biso   1.000  H
  H36      1.0000 0.60466  0.99509  0.78040  Biso   1.000  H
  Zn9      1.0000 0.68155  0.52606  0.42181  Biso   1.000  Zn
  Zn10     1.0000 0.52785  0.67977  0.42181  Biso   1.000  Zn
  Zn11     1.0000 0.52785  0.52606  0.57552  Biso   1.000  Zn
  Zn12     1.0000 0.52785  0.52606  0.42181  Biso   1.000  Zn
  H37      1.0000 0.37310  0.66318  0.26707  Biso   1.000  H
  H38      1.0000 0.85393  0.37132  0.55893  Biso   1.000  H
  H39      1.0000 0.37310  0.37132  0.74789  Biso   1.000  H
  H40      1.0000 0.66496  0.85215  0.26707  Biso   1.000  H
  H41      1.0000 0.66496  0.37132  0.26707  Biso   1.000  H
  H42      1.0000 0.37310  0.85215  0.55893  Biso   1.000  H
  S13      1.0000 0.71761  0.36172  0.71446  Biso   1.000  S
  C61      1.0000 0.36349  0.71583  0.25746  Biso   1.000  C
  C62      1.0000 0.82050  0.36172  0.61157  Biso   1.000  C
  S14      1.0000 0.36349  0.81872  0.25746  Biso   1.000  S
  S15      1.0000 0.36349  0.36172  0.61157  Biso   1.000  S
  S16      1.0000 0.82050  0.71583  0.25746  Biso   1.000  S
  C63      1.0000 0.36349  0.36172  0.71446  Biso   1.000  C
  C64      1.0000 0.71761  0.81872  0.25746  Biso   1.000  C
  S17      1.0000 0.82050  0.36172  0.25746  Biso   1.000  S
  S18      1.0000 0.36349  0.71583  0.71446  Biso   1.000  S
  C65      1.0000 0.71761  0.36172  0.25746  Biso   1.000  C
  C66      1.0000 0.36349  0.81872  0.61157  Biso   1.000  C
  C67      1.0000 0.68814  0.44263  0.58211  Biso   1.000  C
  C68      1.0000 0.73932  0.39145  0.63328  Biso   1.000  C
  C69      1.0000 0.44440  0.68637  0.33837  Biso   1.000  C
  C70      1.0000 0.39323  0.73754  0.28719  Biso   1.000  C
  C71      1.0000 0.44440  0.44263  0.58211  Biso   1.000  C
  C72      1.0000 0.39323  0.39145  0.63328  Biso   1.000  C
  C73      1.0000 0.68814  0.68637  0.33837  Biso   1.000  C
  C74      1.0000 0.73932  0.73754  0.28719  Biso   1.000  C
  C75      1.0000 0.68814  0.44263  0.33837  Biso   1.000  C
  C76      1.0000 0.73932  0.39145  0.28719  Biso   1.000  C
  C77      1.0000 0.44440  0.68637  0.58211  Biso   1.000  C
  C78      1.0000 0.39323  0.73754  0.63328  Biso   1.000  C
  C79      1.0000 0.78334  0.31427  0.74361  Biso   1.000  C
  C80      1.0000 0.31516  0.78157  0.21091  Biso   1.000  C
  C81      1.0000 0.31605  0.31427  0.67731  Biso   1.000  C
  C82      1.0000 0.84875  0.78157  0.21091  Biso   1.000  C
  C83      1.0000 0.84875  0.31427  0.21091  Biso   1.000  C
  C84      1.0000 0.31605  0.78157  0.74361  Biso   1.000  C
  O27      1.0000 0.56627  0.56450  0.46024  Biso   1.000  O
  O28      1.0000 0.72557  0.46124  0.50744  Biso   1.000  O
  O29      1.0000 0.46302  0.72380  0.35699  Biso   1.000  O
  O30      1.0000 0.61347  0.46124  0.61954  Biso   1.000  O
  O31      1.0000 0.46302  0.61170  0.35699  Biso   1.000  O
  O32      1.0000 0.46302  0.46124  0.61954  Biso   1.000  O
  O33      1.0000 0.61347  0.72380  0.35699  Biso   1.000  O
  O34      1.0000 0.46302  0.46124  0.50744  Biso   1.000  O
  O35      1.0000 0.72557  0.61170  0.35699  Biso   1.000  O
  O36      1.0000 0.61347  0.46124  0.35699  Biso   1.000  O
  O37      1.0000 0.46302  0.72380  0.50744  Biso   1.000  O
  O38      1.0000 0.72557  0.46124  0.35699  Biso   1.000  O
  O39      1.0000 0.46302  0.61170  0.61954  Biso   1.000  O
  Zn13     1.0000 0.94965  0.10338  0.99911  Biso   1.000  Zn
  Zn14     1.0000 0.10336  0.94967  0.99911  Biso   1.000  Zn
  Zn15     1.0000 0.10336  0.10338  0.84540  Biso   1.000  Zn
  Zn16     1.0000 0.10336  0.10338  0.99911  Biso   1.000  Zn
  H43      1.0000 0.25810  0.96625  0.15386  Biso   1.000  H
  H44      1.0000 0.77728  0.25811  0.86200  Biso   1.000  H
  H45      1.0000 0.25810  0.25811  0.67303  Biso   1.000  H
  H46      1.0000 0.96624  0.77729  0.15386  Biso   1.000  H
  H47      1.0000 0.96624  0.25811  0.15386  Biso   1.000  H
  H48      1.0000 0.25810  0.77729  0.86200  Biso   1.000  H
  S19      1.0000 0.91360  0.26772  0.70646  Biso   1.000  S
  C85      1.0000 0.26771  0.91361  0.16346  Biso   1.000  C
  C86      1.0000 0.81071  0.26772  0.80935  Biso   1.000  C
  S20      1.0000 0.26771  0.81072  0.16346  Biso   1.000  S
  S21      1.0000 0.26771  0.26772  0.80935  Biso   1.000  S
  S22      1.0000 0.81071  0.91361  0.16346  Biso   1.000  S
  C87      1.0000 0.26771  0.26772  0.70646  Biso   1.000  C
  C88      1.0000 0.91360  0.81072  0.16346  Biso   1.000  C
  S23      1.0000 0.81071  0.26772  0.16346  Biso   1.000  S
  S24      1.0000 0.26771  0.91361  0.70646  Biso   1.000  S
  C89      1.0000 0.91360  0.26772  0.16346  Biso   1.000  C
  C90      1.0000 0.26771  0.81072  0.80935  Biso   1.000  C
  C91      1.0000 0.94306  0.18681  0.83881  Biso   1.000  C
  C92      1.0000 0.89189  0.23799  0.78764  Biso   1.000  C
  C93      1.0000 0.18680  0.94307  0.08255  Biso   1.000  C
  C94      1.0000 0.23798  0.89190  0.13373  Biso   1.000  C
  C95      1.0000 0.18680  0.18681  0.83881  Biso   1.000  C
  C96      1.0000 0.23798  0.23799  0.78764  Biso   1.000  C
  C97      1.0000 0.94306  0.94307  0.08255  Biso   1.000  C
  C98      1.0000 0.89189  0.89190  0.13373  Biso   1.000  C
  C99      1.0000 0.94306  0.18681  0.08255  Biso   1.000  C
  C100     1.0000 0.89189  0.23799  0.13373  Biso   1.000  C
  C101     1.0000 0.18680  0.94307  0.83881  Biso   1.000  C
  C102     1.0000 0.23798  0.89190  0.78764  Biso   1.000  C
  C103     1.0000 0.84964  0.31427  0.67731  Biso   1.000  C
  C104     1.0000 0.31516  0.84787  0.21091  Biso   1.000  C
  C105     1.0000 0.31605  0.31427  0.74361  Biso   1.000  C
  C106     1.0000 0.78245  0.84787  0.21091  Biso   1.000  C
  C107     1.0000 0.78245  0.31427  0.21091  Biso   1.000  C
  C108     1.0000 0.31605  0.84787  0.67731  Biso   1.000  C
  O40      1.0000 0.06493  0.06494  0.96068  Biso   1.000  O
  O41      1.0000 0.90563  0.16819  0.91348  Biso   1.000  O
  O42      1.0000 0.16818  0.90564  0.06394  Biso   1.000  O
  O43      1.0000 0.01773  0.16819  0.80138  Biso   1.000  O
  O44      1.0000 0.16818  0.01774  0.06394  Biso   1.000  O
  O45      1.0000 0.16818  0.16819  0.80138  Biso   1.000  O
  O46      1.0000 0.01773  0.90564  0.06394  Biso   1.000  O
  O47      1.0000 0.16818  0.16819  0.91348  Biso   1.000  O
  O48      1.0000 0.90563  0.01774  0.06394  Biso   1.000  O
  O49      1.0000 0.01773  0.16819  0.06394  Biso   1.000  O
  O50      1.0000 0.16818  0.90564  0.91348  Biso   1.000  O
  O51      1.0000 0.90563  0.16819  0.06394  Biso   1.000  O
  O52      1.0000 0.16818  0.01774  0.80138  Biso   1.000  O
  Zn17     1.0000 0.68066  0.52695  0.42181  Biso   1.000  Zn
  Zn18     1.0000 0.52695  0.68066  0.42181  Biso   1.000  Zn
  Zn19     1.0000 0.52695  0.52695  0.57552  Biso   1.000  Zn
  Zn20     1.0000 0.52695  0.52695  0.42181  Biso   1.000  Zn
  H49      1.0000 0.37221  0.66408  0.26707  Biso   1.000  H
  H50      1.0000 0.85304  0.37222  0.55893  Biso   1.000  H
  H51      1.0000 0.37221  0.37222  0.74789  Biso   1.000  H
  H52      1.0000 0.66407  0.85305  0.26707  Biso   1.000  H
  H53      1.0000 0.66407  0.37222  0.26707  Biso   1.000  H
  H54      1.0000 0.37221  0.85305  0.55893  Biso   1.000  H
  S25      1.0000 0.71671  0.36261  0.71446  Biso   1.000  S
  C109     1.0000 0.36260  0.71672  0.25746  Biso   1.000  C
  C110     1.0000 0.81961  0.36261  0.61157  Biso   1.000  C
  S26      1.0000 0.36260  0.81962  0.25746  Biso   1.000  S
  S27      1.0000 0.36260  0.36261  0.61157  Biso   1.000  S
  S28      1.0000 0.81961  0.71672  0.25746  Biso   1.000  S
  C111     1.0000 0.36260  0.36261  0.71446  Biso   1.000  C
  C112     1.0000 0.71671  0.81962  0.25746  Biso   1.000  C
  S29      1.0000 0.81961  0.36261  0.25746  Biso   1.000  S
  S30      1.0000 0.36260  0.71672  0.71446  Biso   1.000  S
  C113     1.0000 0.71671  0.36261  0.25746  Biso   1.000  C
  C114     1.0000 0.36260  0.81962  0.61157  Biso   1.000  C
  C115     1.0000 0.68725  0.44352  0.58211  Biso   1.000  C
  C116     1.0000 0.73842  0.39234  0.63328  Biso   1.000  C
  C117     1.0000 0.44351  0.68726  0.33837  Biso   1.000  C
  C118     1.0000 0.39233  0.73843  0.28719  Biso   1.000  C
  C119     1.0000 0.44351  0.44352  0.58211  Biso   1.000  C
  C120     1.0000 0.39233  0.39234  0.63328  Biso   1.000  C
  C121     1.0000 0.68725  0.68726  0.33837  Biso   1.000  C
  C122     1.0000 0.73842  0.73843  0.28719  Biso   1.000  C
  C123     1.0000 0.68725  0.44352  0.33837  Biso   1.000  C
  C124     1.0000 0.73842  0.39234  0.28719  Biso   1.000  C
  C125     1.0000 0.44351  0.68726  0.58211  Biso   1.000  C
  C126     1.0000 0.39233  0.73843  0.63328  Biso   1.000  C
  C127     1.0000 0.78245  0.31517  0.74361  Biso   1.000  C
  C128     1.0000 0.31426  0.78246  0.21091  Biso   1.000  C
  C129     1.0000 0.31516  0.31517  0.67731  Biso   1.000  C
  C130     1.0000 0.84786  0.78246  0.21091  Biso   1.000  C
  C131     1.0000 0.84786  0.31517  0.21091  Biso   1.000  C
  C132     1.0000 0.31516  0.78246  0.74361  Biso   1.000  C
  O53      1.0000 0.56538  0.56539  0.46024  Biso   1.000  O
  O54      1.0000 0.72468  0.46214  0.50744  Biso   1.000  O
  O55      1.0000 0.46213  0.72469  0.35699  Biso   1.000  O
  O56      1.0000 0.61258  0.46214  0.61954  Biso   1.000  O
  O57      1.0000 0.46213  0.61259  0.35699  Biso   1.000  O
  O58      1.0000 0.46213  0.46214  0.61954  Biso   1.000  O
  O59      1.0000 0.61258  0.72469  0.35699  Biso   1.000  O
  O60      1.0000 0.46213  0.46214  0.50744  Biso   1.000  O
  O61      1.0000 0.72468  0.61259  0.35699  Biso   1.000  O
  O62      1.0000 0.61258  0.46214  0.35699  Biso   1.000  O
  O63      1.0000 0.46213  0.72469  0.50744  Biso   1.000  O
  O64      1.0000 0.72468  0.46214  0.35699  Biso   1.000  O
  O65      1.0000 0.46213  0.61259  0.61954  Biso   1.000  O
  Zn21     1.0000 0.94876  0.10427  0.99911  Biso   1.000  Zn
  Zn22     1.0000 0.10246  0.95056  0.99911  Biso   1.000  Zn
  Zn23     1.0000 0.10246  0.10427  0.84540  Biso   1.000  Zn
  Zn24     1.0000 0.10246  0.10427  0.99911  Biso   1.000  Zn
  H55      1.0000 0.25721  0.96715  0.15386  Biso   1.000  H
  H56      1.0000 0.77638  0.25901  0.86200  Biso   1.000  H
  H57      1.0000 0.25721  0.25901  0.67303  Biso   1.000  H
  H58      1.0000 0.96535  0.77818  0.15386  Biso   1.000  H
  H59      1.0000 0.96535  0.25901  0.15386  Biso   1.000  H
  H60      1.0000 0.25721  0.77818  0.86200  Biso   1.000  H
  S31      1.0000 0.91271  0.26862  0.70646  Biso   1.000  S
  C133     1.0000 0.26682  0.91450  0.16346  Biso   1.000  C
  C134     1.0000 0.80981  0.26862  0.80935  Biso   1.000  C
  S32      1.0000 0.26682  0.81161  0.16346  Biso   1.000  S
  S33      1.0000 0.26682  0.26862  0.80935  Biso   1.000  S
  S34      1.0000 0.80981  0.91450  0.16346  Biso   1.000  S
  C135     1.0000 0.26682  0.26862  0.70646  Biso   1.000  C
  C136     1.0000 0.91271  0.81161  0.16346  Biso   1.000  C
  S35      1.0000 0.80981  0.26862  0.16346  Biso   1.000  S
  S36      1.0000 0.26682  0.91450  0.70646  Biso   1.000  S
  C137     1.0000 0.91271  0.26862  0.16346  Biso   1.000  C
  C138     1.0000 0.26682  0.81161  0.80935  Biso   1.000  C
  C139     1.0000 0.94217  0.18770  0.83881  Biso   1.000  C
  C140     1.0000 0.89100  0.23888  0.78764  Biso   1.000  C
  C141     1.0000 0.18591  0.94397  0.08255  Biso   1.000  C
  C142     1.0000 0.23708  0.89279  0.13373  Biso   1.000  C
  C143     1.0000 0.18591  0.18770  0.83881  Biso   1.000  C
  C144     1.0000 0.23708  0.23888  0.78764  Biso   1.000  C
  C145     1.0000 0.94217  0.94397  0.08255  Biso   1.000  C
  C146     1.0000 0.89100  0.89279  0.13373  Biso   1.000  C
  C147     1.0000 0.94217  0.18770  0.08255  Biso   1.000  C
  C148     1.0000 0.89100  0.23888  0.13373  Biso   1.000  C
  C149     1.0000 0.18591  0.94397  0.83881  Biso   1.000  C
  C150     1.0000 0.23708  0.89279  0.78764  Biso   1.000  C
  C151     1.0000 0.84875  0.31517  0.67731  Biso   1.000  C
  C152     1.0000 0.31426  0.84876  0.21091  Biso   1.000  C
  C153     1.0000 0.31516  0.31517  0.74361  Biso   1.000  C
  C154     1.0000 0.78156  0.84876  0.21091  Biso   1.000  C
  C155     1.0000 0.78156  0.31517  0.21091  Biso   1.000  C
  C156     1.0000 0.31516  0.84876  0.67731  Biso   1.000  C
  O66      1.0000 0.06404  0.06583  0.96068  Biso   1.000  O
  O67      1.0000 0.90474  0.16909  0.91348  Biso   1.000  O
  O68      1.0000 0.16729  0.90653  0.06394  Biso   1.000  O
  O69      1.0000 0.01684  0.16909  0.80138  Biso   1.000  O
  O70      1.0000 0.16729  0.01863  0.06394  Biso   1.000  O
  O71      1.0000 0.16729  0.16909  0.80138  Biso   1.000  O
  O72      1.0000 0.01684  0.90653  0.06394  Biso   1.000  O
  O73      1.0000 0.16729  0.16909  0.91348  Biso   1.000  O
  O74      1.0000 0.90474  0.01863  0.06394  Biso   1.000  O
  O75      1.0000 0.01684  0.16909  0.06394  Biso   1.000  O
  O76      1.0000 0.16729  0.90653  0.91348  Biso   1.000  O
  O77      1.0000 0.90474  0.16909  0.06394  Biso   1.000  O
  O78      1.0000 0.16729  0.01863  0.80138  Biso   1.000  O
  Zn25     1.0000 0.67977  0.52785  0.42181  Biso   1.000  Zn
  Zn26     1.0000 0.52606  0.68155  0.42181  Biso   1.000  Zn
  Zn27     1.0000 0.52606  0.52785  0.57552  Biso   1.000  Zn
  Zn28     1.0000 0.52606  0.52785  0.42181  Biso   1.000  Zn
  H61      1.0000 0.37131  0.66497  0.26707  Biso   1.000  H
  H62      1.0000 0.85214  0.37311  0.55893  Biso   1.000  H
  H63      1.0000 0.37131  0.37311  0.74789  Biso   1.000  H
  H64      1.0000 0.66317  0.85394  0.26707  Biso   1.000  H
  H65      1.0000 0.66317  0.37311  0.26707  Biso   1.000  H
  H66      1.0000 0.37131  0.85394  0.55893  Biso   1.000  H
  S37      1.0000 0.71582  0.36350  0.71446  Biso   1.000  S
  C157     1.0000 0.36171  0.71762  0.25746  Biso   1.000  C
  C158     1.0000 0.81871  0.36350  0.61157  Biso   1.000  C
  S38      1.0000 0.36171  0.82051  0.25746  Biso   1.000  S
  S39      1.0000 0.36171  0.36350  0.61157  Biso   1.000  S
  S40      1.0000 0.81871  0.71762  0.25746  Biso   1.000  S
  C159     1.0000 0.36171  0.36350  0.71446  Biso   1.000  C
  C160     1.0000 0.71582  0.82051  0.25746  Biso   1.000  C
  S41      1.0000 0.81871  0.36350  0.25746  Biso   1.000  S
  S42      1.0000 0.36171  0.71762  0.71446  Biso   1.000  S
  C161     1.0000 0.71582  0.36350  0.25746  Biso   1.000  C
  C162     1.0000 0.36171  0.82051  0.61157  Biso   1.000  C
  C163     1.0000 0.68636  0.44441  0.58211  Biso   1.000  C
  C164     1.0000 0.73753  0.39324  0.63328  Biso   1.000  C
  C165     1.0000 0.44262  0.68815  0.33837  Biso   1.000  C
  C166     1.0000 0.39144  0.73933  0.28719  Biso   1.000  C
  C167     1.0000 0.44262  0.44441  0.58211  Biso   1.000  C
  C168     1.0000 0.39144  0.39324  0.63328  Biso   1.000  C
  C169     1.0000 0.68636  0.68815  0.33837  Biso   1.000  C
  C170     1.0000 0.73753  0.73933  0.28719  Biso   1.000  C
  C171     1.0000 0.68636  0.44441  0.33837  Biso   1.000  C
  C172     1.0000 0.73753  0.39324  0.28719  Biso   1.000  C
  C173     1.0000 0.44262  0.68815  0.58211  Biso   1.000  C
  C174     1.0000 0.39144  0.73933  0.63328  Biso   1.000  C
  C175     1.0000 0.78156  0.31606  0.74361  Biso   1.000  C
  C176     1.0000 0.31337  0.78335  0.21091  Biso   1.000  C
  C177     1.0000 0.31426  0.31606  0.67731  Biso   1.000  C
  C178     1.0000 0.84697  0.78335  0.21091  Biso   1.000  C
  C179     1.0000 0.84697  0.31606  0.21091  Biso   1.000  C
  C180     1.0000 0.31426  0.78335  0.74361  Biso   1.000  C
  O79      1.0000 0.56449  0.56628  0.46024  Biso   1.000  O
  O80      1.0000 0.72379  0.46303  0.50744  Biso   1.000  O
  O81      1.0000 0.46123  0.72558  0.35699  Biso   1.000  O
  O82      1.0000 0.61169  0.46303  0.61954  Biso   1.000  O
  O83      1.0000 0.46123  0.61348  0.35699  Biso   1.000  O
  O84      1.0000 0.46123  0.46303  0.61954  Biso   1.000  O
  O85      1.0000 0.61169  0.72558  0.35699  Biso   1.000  O
  O86      1.0000 0.46123  0.46303  0.50744  Biso   1.000  O
  O87      1.0000 0.72379  0.61348  0.35699  Biso   1.000  O
  O88      1.0000 0.61169  0.46303  0.35699  Biso   1.000  O
  O89      1.0000 0.46123  0.72558  0.50744  Biso   1.000  O
  O90      1.0000 0.72379  0.46303  0.35699  Biso   1.000  O
  O91      1.0000 0.46123  0.61348  0.61954  Biso   1.000  O
  Zn29     1.0000 0.94787  0.10516  0.99911  Biso   1.000  Zn
  Zn30     1.0000 0.10157  0.95145  0.99911  Biso   1.000  Zn
  Zn31     1.0000 0.10157  0.10516  0.84540  Biso   1.000  Zn
  Zn32     1.0000 0.10157  0.10516  0.99911  Biso   1.000  Zn
  H67      1.0000 0.25632  0.96804  0.15386  Biso   1.000  H
  H68      1.0000 0.77549  0.25990  0.86200  Biso   1.000  H
  H69      1.0000 0.25632  0.25990  0.67303  Biso   1.000  H
  H70      1.0000 0.96446  0.77907  0.15386  Biso   1.000  H
  H71      1.0000 0.96446  0.25990  0.15386  Biso   1.000  H
  H72      1.0000 0.25632  0.77907  0.86200  Biso   1.000  H
  S43      1.0000 0.91181  0.26951  0.70646  Biso   1.000  S
  C181     1.0000 0.26593  0.91539  0.16346  Biso   1.000  C
  C182     1.0000 0.80892  0.26951  0.80935  Biso   1.000  C
  S44      1.0000 0.26593  0.81250  0.16346  Biso   1.000  S
  S45      1.0000 0.26593  0.26951  0.80935  Biso   1.000  S
  S46      1.0000 0.80892  0.91539  0.16346  Biso   1.000  S
  C183     1.0000 0.26593  0.26951  0.70646  Biso   1.000  C
  C184     1.0000 0.91181  0.81250  0.16346  Biso   1.000  C
  S47      1.0000 0.80892  0.26951  0.16346  Biso   1.000  S
  S48      1.0000 0.26593  0.91539  0.70646  Biso   1.000  S
  C185     1.0000 0.91181  0.26951  0.16346  Biso   1.000  C
  C186     1.0000 0.26593  0.81250  0.80935  Biso   1.000  C
  C187     1.0000 0.94128  0.18860  0.83881  Biso   1.000  C
  C188     1.0000 0.89010  0.23977  0.78764  Biso   1.000  C
  C189     1.0000 0.18502  0.94486  0.08255  Biso   1.000  C
  C190     1.0000 0.23619  0.89368  0.13373  Biso   1.000  C
  C191     1.0000 0.18502  0.18860  0.83881  Biso   1.000  C
  C192     1.0000 0.23619  0.23977  0.78764  Biso   1.000  C
  C193     1.0000 0.94128  0.94486  0.08255  Biso   1.000  C
  C194     1.0000 0.89010  0.89368  0.13373  Biso   1.000  C
  C195     1.0000 0.94128  0.18860  0.08255  Biso   1.000  C
  C196     1.0000 0.89010  0.23977  0.13373  Biso   1.000  C
  C197     1.0000 0.18502  0.94486  0.83881  Biso   1.000  C
  C198     1.0000 0.23619  0.89368  0.78764  Biso   1.000  C
  C199     1.0000 0.84786  0.31606  0.67731  Biso   1.000  C
  C200     1.0000 0.31337  0.84965  0.21091  Biso   1.000  C
  C201     1.0000 0.31426  0.31606  0.74361  Biso   1.000  C
  C202     1.0000 0.78067  0.84965  0.21091  Biso   1.000  C
  C203     1.0000 0.78067  0.31606  0.21091  Biso   1.000  C
  C204     1.0000 0.31426  0.84965  0.67731  Biso   1.000  C
  O92      1.0000 0.06315  0.06673  0.96068  Biso   1.000  O
  O93      1.0000 0.90385  0.16998  0.91348  Biso   1.000  O
  O94      1.0000 0.16640  0.90743  0.06394  Biso   1.000  O
  O95      1.0000 0.01595  0.16998  0.80138  Biso   1.000  O
  O96      1.0000 0.16640  0.01953  0.06394  Biso   1.000  O
  O97      1.0000 0.16640  0.16998  0.80138  Biso   1.000  O
  O98      1.0000 0.01595  0.90743  0.06394  Biso   1.000  O
  O99      1.0000 0.16640  0.16998  0.91348  Biso   1.000  O
  O100     1.0000 0.90385  0.01953  0.06394  Biso   1.000  O
  O101     1.0000 0.01595  0.16998  0.06394  Biso   1.000  O
  O102     1.0000 0.16640  0.90743  0.91348  Biso   1.000  O
  O103     1.0000 0.90385  0.16998  0.06394  Biso   1.000  O
  O104     1.0000 0.16640  0.01953  0.80138  Biso   1.000  O
  Zn33     1.0000 0.68066  0.52606  0.42181  Biso   1.000  Zn
  Zn34     1.0000 0.52695  0.67977  0.42181  Biso   1.000  Zn
  Zn35     1.0000 0.52695  0.52606  0.57552  Biso   1.000  Zn
  Zn36     1.0000 0.52695  0.52606  0.42181  Biso   1.000  Zn
  H73      1.0000 0.37221  0.66318  0.26707  Biso   1.000  H
  H74      1.0000 0.85304  0.37132  0.55893  Biso   1.000  H
  H75      1.0000 0.37221  0.37132  0.74789  Biso   1.000  H
  H76      1.0000 0.66407  0.85215  0.26707  Biso   1.000  H
  H77      1.0000 0.66407  0.37132  0.26707  Biso   1.000  H
  H78      1.0000 0.37221  0.85215  0.55893  Biso   1.000  H
  S49      1.0000 0.71671  0.36172  0.71446  Biso   1.000  S
  C205     1.0000 0.36260  0.71583  0.25746  Biso   1.000  C
  C206     1.0000 0.81961  0.36172  0.61157  Biso   1.000  C
  S50      1.0000 0.36260  0.81872  0.25746  Biso   1.000  S
  S51      1.0000 0.36260  0.36172  0.61157  Biso   1.000  S
  S52      1.0000 0.81961  0.71583  0.25746  Biso   1.000  S
  C207     1.0000 0.36260  0.36172  0.71446  Biso   1.000  C
  C208     1.0000 0.71671  0.81872  0.25746  Biso   1.000  C
  S53      1.0000 0.81961  0.36172  0.25746  Biso   1.000  S
  S54      1.0000 0.36260  0.71583  0.71446  Biso   1.000  S
  C209     1.0000 0.71671  0.36172  0.25746  Biso   1.000  C
  C210     1.0000 0.36260  0.81872  0.61157  Biso   1.000  C
  C211     1.0000 0.68725  0.44263  0.58211  Biso   1.000  C
  C212     1.0000 0.73842  0.39145  0.63328  Biso   1.000  C
  C213     1.0000 0.44351  0.68637  0.33837  Biso   1.000  C
  C214     1.0000 0.39233  0.73754  0.28719  Biso   1.000  C
  C215     1.0000 0.44351  0.44263  0.58211  Biso   1.000  C
  C216     1.0000 0.39233  0.39145  0.63328  Biso   1.000  C
  C217     1.0000 0.68725  0.68637  0.33837  Biso   1.000  C
  C218     1.0000 0.73842  0.73754  0.28719  Biso   1.000  C
  C219     1.0000 0.68725  0.44263  0.33837  Biso   1.000  C
  C220     1.0000 0.73842  0.39145  0.28719  Biso   1.000  C
  C221     1.0000 0.44351  0.68637  0.58211  Biso   1.000  C
  C222     1.0000 0.39233  0.73754  0.63328  Biso   1.000  C
  C223     1.0000 0.78245  0.31427  0.74361  Biso   1.000  C
  C224     1.0000 0.31426  0.78157  0.21091  Biso   1.000  C
  C225     1.0000 0.31516  0.31427  0.67731  Biso   1.000  C
  C226     1.0000 0.84786  0.78157  0.21091  Biso   1.000  C
  C227     1.0000 0.84786  0.31427  0.21091  Biso   1.000  C
  C228     1.0000 0.31516  0.78157  0.74361  Biso   1.000  C
  O105     1.0000 0.56538  0.56450  0.46024  Biso   1.000  O
  O106     1.0000 0.72468  0.46124  0.50744  Biso   1.000  O
  O107     1.0000 0.46213  0.72380  0.35699  Biso   1.000  O
  O108     1.0000 0.61258  0.46124  0.61954  Biso   1.000  O
  O109     1.0000 0.46213  0.61170  0.35699  Biso   1.000  O
  O110     1.0000 0.46213  0.46124  0.61954  Biso   1.000  O
  O111     1.0000 0.61258  0.72380  0.35699  Biso   1.000  O
  O112     1.0000 0.46213  0.46124  0.50744  Biso   1.000  O
  O113     1.0000 0.72468  0.61170  0.35699  Biso   1.000  O
  O114     1.0000 0.61258  0.46124  0.35699  Biso   1.000  O
  O115     1.0000 0.46213  0.72380  0.50744  Biso   1.000  O
  O116     1.0000 0.72468  0.46124  0.35699  Biso   1.000  O
  O117     1.0000 0.46213  0.61170  0.61954  Biso   1.000  O
  Zn37     1.0000 0.94876  0.10338  0.99911  Biso   1.000  Zn
  Zn38     1.0000 0.10246  0.94967  0.99911  Biso   1.000  Zn
  Zn39     1.0000 0.10246  0.10338  0.84540  Biso   1.000  Zn
  Zn40     1.0000 0.10246  0.10338  0.99911  Biso   1.000  Zn
  H79      1.0000 0.25721  0.96625  0.15386  Biso   1.000  H
  H80      1.0000 0.77638  0.25811  0.86200  Biso   1.000  H
  H81      1.0000 0.25721  0.25811  0.67303  Biso   1.000  H
  H82      1.0000 0.96535  0.77729  0.15386  Biso   1.000  H
  H83      1.0000 0.96535  0.25811  0.15386  Biso   1.000  H
  H84      1.0000 0.25721  0.77729  0.86200  Biso   1.000  H
  S55      1.0000 0.91271  0.26772  0.70646  Biso   1.000  S
  C229     1.0000 0.26682  0.91361  0.16346  Biso   1.000  C
  C230     1.0000 0.80981  0.26772  0.80935  Biso   1.000  C
  S56      1.0000 0.26682  0.81072  0.16346  Biso   1.000  S
  S57      1.0000 0.26682  0.26772  0.80935  Biso   1.000  S
  S58      1.0000 0.80981  0.91361  0.16346  Biso   1.000  S
  C231     1.0000 0.26682  0.26772  0.70646  Biso   1.000  C
  C232     1.0000 0.91271  0.81072  0.16346  Biso   1.000  C
  S59      1.0000 0.80981  0.26772  0.16346  Biso   1.000  S
  S60      1.0000 0.26682  0.91361  0.70646  Biso   1.000  S
  C233     1.0000 0.91271  0.26772  0.16346  Biso   1.000  C
  C234     1.0000 0.26682  0.81072  0.80935  Biso   1.000  C
  C235     1.0000 0.94217  0.18681  0.83881  Biso   1.000  C
  C236     1.0000 0.89100  0.23799  0.78764  Biso   1.000  C
  C237     1.0000 0.18591  0.94307  0.08255  Biso   1.000  C
  C238     1.0000 0.23708  0.89190  0.13373  Biso   1.000  C
  C239     1.0000 0.18591  0.18681  0.83881  Biso   1.000  C
  C240     1.0000 0.23708  0.23799  0.78764  Biso   1.000  C
  C241     1.0000 0.94217  0.94307  0.08255  Biso   1.000  C
  C242     1.0000 0.89100  0.89190  0.13373  Biso   1.000  C
  C243     1.0000 0.94217  0.18681  0.08255  Biso   1.000  C
  C244     1.0000 0.89100  0.23799  0.13373  Biso   1.000  C
  C245     1.0000 0.18591  0.94307  0.83881  Biso   1.000  C
  C246     1.0000 0.23708  0.89190  0.78764  Biso   1.000  C
  C247     1.0000 0.84875  0.31427  0.67731  Biso   1.000  C
  C248     1.0000 0.31426  0.84787  0.21091  Biso   1.000  C
  C249     1.0000 0.31516  0.31427  0.74361  Biso   1.000  C
  C250     1.0000 0.78156  0.84787  0.21091  Biso   1.000  C
  C251     1.0000 0.78156  0.31427  0.21091  Biso   1.000  C
  C252     1.0000 0.31516  0.84787  0.67731  Biso   1.000  C
  O118     1.0000 0.06404  0.06494  0.96068  Biso   1.000  O
  O119     1.0000 0.90474  0.16819  0.91348  Biso   1.000  O
  O120     1.0000 0.16729  0.90564  0.06394  Biso   1.000  O
  O121     1.0000 0.01684  0.16819  0.80138  Biso   1.000  O
  O122     1.0000 0.16729  0.01774  0.06394  Biso   1.000  O
  O123     1.0000 0.16729  0.16819  0.80138  Biso   1.000  O
  O124     1.0000 0.01684  0.90564  0.06394  Biso   1.000  O
  O125     1.0000 0.16729  0.16819  0.91348  Biso   1.000  O
  O126     1.0000 0.90474  0.01774  0.06394  Biso   1.000  O
  O127     1.0000 0.01684  0.16819  0.06394  Biso   1.000  O
  O128     1.0000 0.16729  0.90564  0.91348  Biso   1.000  O
  O129     1.0000 0.90474  0.16819  0.06394  Biso   1.000  O
  O130     1.0000 0.16729  0.01774  0.80138  Biso   1.000  O
  Zn41     1.0000 0.67977  0.52695  0.42181  Biso   1.000  Zn
  Zn42     1.0000 0.52606  0.68066  0.42181  Biso   1.000  Zn
  Zn43     1.0000 0.52606  0.52695  0.57552  Biso   1.000  Zn
  Zn44     1.0000 0.52606  0.52695  0.42181  Biso   1.000  Zn
  H85      1.0000 0.37131  0.66408  0.26707  Biso   1.000  H
  H86      1.0000 0.85214  0.37222  0.55893  Biso   1.000  H
  H87      1.0000 0.37131  0.37222  0.74789  Biso   1.000  H
  H88      1.0000 0.66317  0.85305  0.26707  Biso   1.000  H
  H89      1.0000 0.66317  0.37222  0.26707  Biso   1.000  H
  H90      1.0000 0.37131  0.85305  0.55893  Biso   1.000  H
  S61      1.0000 0.71582  0.36261  0.71446  Biso   1.000  S
  C253     1.0000 0.36171  0.71672  0.25746  Biso   1.000  C
  C254     1.0000 0.81871  0.36261  0.61157  Biso   1.000  C
  S62      1.0000 0.36171  0.81962  0.25746  Biso   1.000  S
  S63      1.0000 0.36171  0.36261  0.61157  Biso   1.000  S
  S64      1.0000 0.81871  0.71672  0.25746  Biso   1.000  S
  C255     1.0000 0.36171  0.36261  0.71446  Biso   1.000  C
  C256     1.0000 0.71582  0.81962  0.25746  Biso   1.000  C
  S65      1.0000 0.81871  0.36261  0.25746  Biso   1.000  S
  S66      1.0000 0.36171  0.71672  0.71446  Biso   1.000  S
  C257     1.0000 0.71582  0.36261  0.25746  Biso   1.000  C
  C258     1.0000 0.36171  0.81962  0.61157  Biso   1.000  C
  C259     1.0000 0.68636  0.44352  0.58211  Biso   1.000  C
  C260     1.0000 0.73753  0.39234  0.63328  Biso   1.000  C
  C261     1.0000 0.44262  0.68726  0.33837  Biso   1.000  C
  C262     1.0000 0.39144  0.73843  0.28719  Biso   1.000  C
  C263     1.0000 0.44262  0.44352  0.58211  Biso   1.000  C
  C264     1.0000 0.39144  0.39234  0.63328  Biso   1.000  C
  C265     1.0000 0.68636  0.68726  0.33837  Biso   1.000  C
  C266     1.0000 0.73753  0.73843  0.28719  Biso   1.000  C
  C267     1.0000 0.68636  0.44352  0.33837  Biso   1.000  C
  C268     1.0000 0.73753  0.39234  0.28719  Biso   1.000  C
  C269     1.0000 0.44262  0.68726  0.58211  Biso   1.000  C
  C270     1.0000 0.39144  0.73843  0.63328  Biso   1.000  C
  C271     1.0000 0.78156  0.31517  0.74361  Biso   1.000  C
  C272     1.0000 0.31337  0.78246  0.21091  Biso   1.000  C
  C273     1.0000 0.31426  0.31517  0.67731  Biso   1.000  C
  C274     1.0000 0.84697  0.78246  0.21091  Biso   1.000  C
  C275     1.0000 0.84697  0.31517  0.21091  Biso   1.000  C
  C276     1.0000 0.31426  0.78246  0.74361  Biso   1.000  C
  O131     1.0000 0.56449  0.56539  0.46024  Biso   1.000  O
  O132     1.0000 0.72379  0.46214  0.50744  Biso   1.000  O
  O133     1.0000 0.46123  0.72469  0.35699  Biso   1.000  O
  O134     1.0000 0.61169  0.46214  0.61954  Biso   1.000  O
  O135     1.0000 0.46123  0.61259  0.35699  Biso   1.000  O
  O136     1.0000 0.46123  0.46214  0.61954  Biso   1.000  O
  O137     1.0000 0.61169  0.72469  0.35699  Biso   1.000  O
  O138     1.0000 0.46123  0.46214  0.50744  Biso   1.000  O
  O139     1.0000 0.72379  0.61259  0.35699  Biso   1.000  O
  O140     1.0000 0.61169  0.46214  0.35699  Biso   1.000  O
  O141     1.0000 0.46123  0.72469  0.50744  Biso   1.000  O
  O142     1.0000 0.72379  0.46214  0.35699  Biso   1.000  O
  O143     1.0000 0.46123  0.61259  0.61954  Biso   1.000  O
  Zn45     1.0000 0.94787  0.10427  0.99911  Biso   1.000  Zn
  Zn46     1.0000 0.10157  0.95056  0.99911  Biso   1.000  Zn
  Zn47     1.0000 0.10157  0.10427  0.84540  Biso   1.000  Zn
  Zn48     1.0000 0.10157  0.10427  0.99911  Biso   1.000  Zn
  H91      1.0000 0.25632  0.96715  0.15386  Biso   1.000  H
  H92      1.0000 0.77549  0.25901  0.86200  Biso   1.000  H
  H93      1.0000 0.25632  0.25901  0.67303  Biso   1.000  H
  H94      1.0000 0.96446  0.77818  0.15386  Biso   1.000  H
  H95      1.0000 0.96446  0.25901  0.15386  Biso   1.000  H
  H96      1.0000 0.25632  0.77818  0.86200  Biso   1.000  H
  S67      1.0000 0.91181  0.26862  0.70646  Biso   1.000  S
  C277     1.0000 0.26593  0.91450  0.16346  Biso   1.000  C
  C278     1.0000 0.80892  0.26862  0.80935  Biso   1.000  C
  S68      1.0000 0.26593  0.81161  0.16346  Biso   1.000  S
  S69      1.0000 0.26593  0.26862  0.80935  Biso   1.000  S
  S70      1.0000 0.80892  0.91450  0.16346  Biso   1.000  S
  C279     1.0000 0.26593  0.26862  0.70646  Biso   1.000  C
  C280     1.0000 0.91181  0.81161  0.16346  Biso   1.000  C
  S71      1.0000 0.80892  0.26862  0.16346  Biso   1.000  S
  S72      1.0000 0.26593  0.91450  0.70646  Biso   1.000  S
  C281     1.0000 0.91181  0.26862  0.16346  Biso   1.000  C
  C282     1.0000 0.26593  0.81161  0.80935  Biso   1.000  C
  C283     1.0000 0.94128  0.18770  0.83881  Biso   1.000  C
  C284     1.0000 0.89010  0.23888  0.78764  Biso   1.000  C
  C285     1.0000 0.18502  0.94397  0.08255  Biso   1.000  C
  C286     1.0000 0.23619  0.89279  0.13373  Biso   1.000  C
  C287     1.0000 0.18502  0.18770  0.83881  Biso   1.000  C
  C288     1.0000 0.23619  0.23888  0.78764  Biso   1.000  C
  C289     1.0000 0.94128  0.94397  0.08255  Biso   1.000  C
  C290     1.0000 0.89010  0.89279  0.13373  Biso   1.000  C
  C291     1.0000 0.94128  0.18770  0.08255  Biso   1.000  C
  C292     1.0000 0.89010  0.23888  0.13373  Biso   1.000  C
  C293     1.0000 0.18502  0.94397  0.83881  Biso   1.000  C
  C294     1.0000 0.23619  0.89279  0.78764  Biso   1.000  C
  C295     1.0000 0.84786  0.31517  0.67731  Biso   1.000  C
  C296     1.0000 0.31337  0.84876  0.21091  Biso   1.000  C
  C297     1.0000 0.31426  0.31517  0.74361  Biso   1.000  C
  C298     1.0000 0.78067  0.84876  0.21091  Biso   1.000  C
  C299     1.0000 0.78067  0.31517  0.21091  Biso   1.000  C
  C300     1.0000 0.31426  0.84876  0.67731  Biso   1.000  C
  O144     1.0000 0.06315  0.06583  0.96068  Biso   1.000  O
  O145     1.0000 0.90385  0.16909  0.91348  Biso   1.000  O
  O146     1.0000 0.16640  0.90653  0.06394  Biso   1.000  O
  O147     1.0000 0.01595  0.16909  0.80138  Biso   1.000  O
  O148     1.0000 0.16640  0.01863  0.06394  Biso   1.000  O
  O149     1.0000 0.16640  0.16909  0.80138  Biso   1.000  O
  O150     1.0000 0.01595  0.90653  0.06394  Biso   1.000  O
  O151     1.0000 0.16640  0.16909  0.91348  Biso   1.000  O
  O152     1.0000 0.90385  0.01863  0.06394  Biso   1.000  O
  O153     1.0000 0.01595  0.16909  0.06394  Biso   1.000  O
  O154     1.0000 0.16640  0.90653  0.91348  Biso   1.000  O
  O155     1.0000 0.90385  0.16909  0.06394  Biso   1.000  O
  O156     1.0000 0.16640  0.01863  0.80138  Biso   1.000  O
  Zn49     1.0000 0.67888  0.52785  0.42181  Biso   1.000  Zn
  Zn50     1.0000 0.52517  0.68155  0.42181  Biso   1.000  Zn
  Zn51     1.0000 0.52517  0.52785  0.57552  Biso   1.000  Zn
  Zn52     1.0000 0.52517  0.52785  0.42181  Biso   1.000  Zn
  H97      1.0000 0.37042  0.66497  0.26707  Biso   1.000  H
  H98      1.0000 0.85125  0.37311  0.55893  Biso   1.000  H
  H99      1.0000 0.37042  0.37311  0.74789  Biso   1.000  H
  H100     1.0000 0.66228  0.85394  0.26707  Biso   1.000  H
  H101     1.0000 0.66228  0.37311  0.26707  Biso   1.000  H
  H102     1.0000 0.37042  0.85394  0.55893  Biso   1.000  H
  S73      1.0000 0.71493  0.36350  0.71446  Biso   1.000  S
  C301     1.0000 0.36081  0.71762  0.25746  Biso   1.000  C
  C302     1.0000 0.81782  0.36350  0.61157  Biso   1.000  C
  S74      1.0000 0.36081  0.82051  0.25746  Biso   1.000  S
  S75      1.0000 0.36081  0.36350  0.61157  Biso   1.000  S
  S76      1.0000 0.81782  0.71762  0.25746  Biso   1.000  S
  C303     1.0000 0.36081  0.36350  0.71446  Biso   1.000  C
  C304     1.0000 0.71493  0.82051  0.25746  Biso   1.000  C
  S77      1.0000 0.81782  0.36350  0.25746  Biso   1.000  S
  S78      1.0000 0.36081  0.71762  0.71446  Biso   1.000  S
  C305     1.0000 0.71493  0.36350  0.25746  Biso   1.000  C
  C306     1.0000 0.36081  0.82051  0.61157  Biso   1.000  C
  C307     1.0000 0.68546  0.44441  0.58211  Biso   1.000  C
  C308     1.0000 0.73664  0.39324  0.63328  Biso   1.000  C
  C309     1.0000 0.44173  0.68815  0.33837  Biso   1.000  C
  C310     1.0000 0.39055  0.73933  0.28719  Biso   1.000  C
  C311     1.0000 0.44173  0.44441  0.58211  Biso   1.000  C
  C312     1.0000 0.39055  0.39324  0.63328  Biso   1.000  C
  C313     1.0000 0.68546  0.68815  0.33837  Biso   1.000  C
  C314     1.0000 0.73664  0.73933  0.28719  Biso   1.000  C
  C315     1.0000 0.68546  0.44441  0.33837  Biso   1.000  C
  C316     1.0000 0.73664  0.39324  0.28719  Biso   1.000  C
  C317     1.0000 0.44173  0.68815  0.58211  Biso   1.000  C
  C318     1.0000 0.39055  0.73933  0.63328  Biso   1.000  C
  C319     1.0000 0.78067  0.31606  0.74361  Biso   1.000  C
  C320     1.0000 0.31248  0.78335  0.21091  Biso   1.000  C
  C321     1.0000 0.31337  0.31606  0.67731  Biso   1.000  C
  C322     1.0000 0.84607  0.78335  0.21091  Biso   1.000  C
  C323     1.0000 0.84607  0.31606  0.21091  Biso   1.000  C
  C324     1.0000 0.31337  0.78335  0.74361  Biso   1.000  C
  O157     1.0000 0.56359  0.56628  0.46024  Biso   1.000  O
  O158     1.0000 0.72290  0.46303  0.50744  Biso   1.000  O
  O159     1.0000 0.46034  0.72558  0.35699  Biso   1.000  O
  O160     1.0000 0.61080  0.46303  0.61954  Biso   1.000  O
  O161     1.0000 0.46034  0.61348  0.35699  Biso   1.000  O
  O162     1.0000 0.46034  0.46303  0.61954  Biso   1.000  O
  O163     1.0000 0.61080  0.72558  0.35699  Biso   1.000  O
  O164     1.0000 0.46034  0.46303  0.50744  Biso   1.000  O
  O165     1.0000 0.72290  0.61348  0.35699  Biso   1.000  O
  O166     1.0000 0.61080  0.46303  0.35699  Biso   1.000  O
  O167     1.0000 0.46034  0.72558  0.50744  Biso   1.000  O
  O168     1.0000 0.72290  0.46303  0.35699  Biso   1.000  O
  O169     1.0000 0.46034  0.61348  0.61954  Biso   1.000  O
  Zn53     1.0000 0.94697  0.10516  0.99911  Biso   1.000  Zn
  Zn54     1.0000 0.10068  0.95145  0.99911  Biso   1.000  Zn
  Zn55     1.0000 0.10068  0.10516  0.84540  Biso   1.000  Zn
  Zn56     1.0000 0.10068  0.10516  0.99911  Biso   1.000  Zn
  H103     1.0000 0.25543  0.96804  0.15386  Biso   1.000  H
  H104     1.0000 0.77460  0.25990  0.86200  Biso   1.000  H
  H105     1.0000 0.25543  0.25990  0.67303  Biso   1.000  H
  H106     1.0000 0.96357  0.77907  0.15386  Biso   1.000  H
  H107     1.0000 0.96357  0.25990  0.15386  Biso   1.000  H
  H108     1.0000 0.25543  0.77907  0.86200  Biso   1.000  H
  S79      1.0000 0.91092  0.26951  0.70646  Biso   1.000  S
  C325     1.0000 0.26504  0.91539  0.16346  Biso   1.000  C
  C326     1.0000 0.80803  0.26951  0.80935  Biso   1.000  C
  S80      1.0000 0.26504  0.81250  0.16346  Biso   1.000  S
  S81      1.0000 0.26504  0.26951  0.80935  Biso   1.000  S
  S82      1.0000 0.80803  0.91539  0.16346  Biso   1.000  S
  C327     1.0000 0.26504  0.26951  0.70646  Biso   1.000  C
  C328     1.0000 0.91092  0.81250  0.16346  Biso   1.000  C
  S83      1.0000 0.80803  0.26951  0.16346  Biso   1.000  S
  S84      1.0000 0.26504  0.91539  0.70646  Biso   1.000  S
  C329     1.0000 0.91092  0.26951  0.16346  Biso   1.000  C
  C330     1.0000 0.26504  0.81250  0.80935  Biso   1.000  C
  C331     1.0000 0.94039  0.18860  0.83881  Biso   1.000  C
  C332     1.0000 0.88921  0.23977  0.78764  Biso   1.000  C
  C333     1.0000 0.18412  0.94486  0.08255  Biso   1.000  C
  C334     1.0000 0.23530  0.89368  0.13373  Biso   1.000  C
  C335     1.0000 0.18412  0.18860  0.83881  Biso   1.000  C
  C336     1.0000 0.23530  0.23977  0.78764  Biso   1.000  C
  C337     1.0000 0.94039  0.94486  0.08255  Biso   1.000  C
  C338     1.0000 0.88921  0.89368  0.13373  Biso   1.000  C
  C339     1.0000 0.94039  0.18860  0.08255  Biso   1.000  C
  C340     1.0000 0.88921  0.23977  0.13373  Biso   1.000  C
  C341     1.0000 0.18412  0.94486  0.83881  Biso   1.000  C
  C342     1.0000 0.23530  0.89368  0.78764  Biso   1.000  C
  C343     1.0000 0.84697  0.31606  0.67731  Biso   1.000  C
  C344     1.0000 0.31248  0.84965  0.21091  Biso   1.000  C
  C345     1.0000 0.31337  0.31606  0.74361  Biso   1.000  C
  C346     1.0000 0.77978  0.84965  0.21091  Biso   1.000  C
  C347     1.0000 0.77978  0.31606  0.21091  Biso   1.000  C
  C348     1.0000 0.31337  0.84965  0.67731  Biso   1.000  C
  O170     1.0000 0.06226  0.06673  0.96068  Biso   1.000  O
  O171     1.0000 0.90295  0.16998  0.91348  Biso   1.000  O
  O172     1.0000 0.16551  0.90743  0.06394  Biso   1.000  O
  O173     1.0000 0.01505  0.16998  0.80138  Biso   1.000  O
  O174     1.0000 0.16551  0.01953  0.06394  Biso   1.000  O
  O175     1.0000 0.16551  0.16998  0.80138  Biso   1.000  O
  O176     1.0000 0.01505  0.90743  0.06394  Biso   1.000  O
  O177     1.0000 0.16551  0.16998  0.91348  Biso   1.000  O
  O178     1.0000 0.90295  0.01953  0.06394  Biso   1.000  O
  O179     1.0000 0.01505  0.16998  0.06394  Biso   1.000  O
  O180     1.0000 0.16551  0.90743  0.91348  Biso   1.000  O
  O181     1.0000 0.90295  0.16998  0.06394  Biso   1.000  O
  O182     1.0000 0.16551  0.01953  0.80138  Biso   1.000  O
  Zn57     1.0000 0.67977  0.52606  0.42181  Biso   1.000  Zn
  Zn58     1.0000 0.52606  0.67977  0.42181  Biso   1.000  Zn
  Zn59     1.0000 0.52606  0.52606  0.57552  Biso   1.000  Zn
  Zn60     1.0000 0.52606  0.52606  0.42181  Biso   1.000  Zn
  H109     1.0000 0.37131  0.66318  0.26707  Biso   1.000  H
  H110     1.0000 0.85214  0.37132  0.55893  Biso   1.000  H
  H111     1.0000 0.37131  0.37132  0.74789  Biso   1.000  H
  H112     1.0000 0.66317  0.85215  0.26707  Biso   1.000  H
  H113     1.0000 0.66317  0.37132  0.26707  Biso   1.000  H
  H114     1.0000 0.37131  0.85215  0.55893  Biso   1.000  H
  S85      1.0000 0.71582  0.36172  0.71446  Biso   1.000  S
  C349     1.0000 0.36171  0.71583  0.25746  Biso   1.000  C
  C350     1.0000 0.81871  0.36172  0.61157  Biso   1.000  C
  S86      1.0000 0.36171  0.81872  0.25746  Biso   1.000  S
  S87      1.0000 0.36171  0.36172  0.61157  Biso   1.000  S
  S88      1.0000 0.81871  0.71583  0.25746  Biso   1.000  S
  C351     1.0000 0.36171  0.36172  0.71446  Biso   1.000  C
  C352     1.0000 0.71582  0.81872  0.25746  Biso   1.000  C
  S89      1.0000 0.81871  0.36172  0.25746  Biso   1.000  S
  S90      1.0000 0.36171  0.71583  0.71446  Biso   1.000  S
  C353     1.0000 0.71582  0.36172  0.25746  Biso   1.000  C
  C354     1.0000 0.36171  0.81872  0.61157  Biso   1.000  C
  C355     1.0000 0.68636  0.44263  0.58211  Biso   1.000  C
  C356     1.0000 0.73753  0.39145  0.63328  Biso   1.000  C
  C357     1.0000 0.44262  0.68637  0.33837  Biso   1.000  C
  C358     1.0000 0.39144  0.73754  0.28719  Biso   1.000  C
  C359     1.0000 0.44262  0.44263  0.58211  Biso   1.000  C
  C360     1.0000 0.39144  0.39145  0.63328  Biso   1.000  C
  C361     1.0000 0.68636  0.68637  0.33837  Biso   1.000  C
  C362     1.0000 0.73753  0.73754  0.28719  Biso   1.000  C
  C363     1.0000 0.68636  0.44263  0.33837  Biso   1.000  C
  C364     1.0000 0.73753  0.39145  0.28719  Biso   1.000  C
  C365     1.0000 0.44262  0.68637  0.58211  Biso   1.000  C
  C366     1.0000 0.39144  0.73754  0.63328  Biso   1.000  C
  C367     1.0000 0.78156  0.31427  0.74361  Biso   1.000  C
  C368     1.0000 0.31337  0.78157  0.21091  Biso   1.000  C
  C369     1.0000 0.31426  0.31427  0.67731  Biso   1.000  C
  C370     1.0000 0.84697  0.78157  0.21091  Biso   1.000  C
  C371     1.0000 0.84697  0.31427  0.21091  Biso   1.000  C
  C372     1.0000 0.31426  0.78157  0.74361  Biso   1.000  C
  O183     1.0000 0.56449  0.56450  0.46024  Biso   1.000  O
  O184     1.0000 0.72379  0.46124  0.50744  Biso   1.000  O
  O185     1.0000 0.46123  0.72380  0.35699  Biso   1.000  O
  O186     1.0000 0.61169  0.46124  0.61954  Biso   1.000  O
  O187     1.0000 0.46123  0.61170  0.35699  Biso   1.000  O
  O188     1.0000 0.46123  0.46124  0.61954  Biso   1.000  O
  O189     1.0000 0.61169  0.72380  0.35699  Biso   1.000  O
  O190     1.0000 0.46123  0.46124  0.50744  Biso   1.000  O
  O191     1.0000 0.72379  0.61170  0.35699  Biso   1.000  O
  O192     1.0000 0.61169  0.46124  0.35699  Biso   1.000  O
  O193     1.0000 0.46123  0.72380  0.50744  Biso   1.000  O
  O194     1.0000 0.72379  0.46124  0.35699  Biso   1.000  O
  O195     1.0000 0.46123  0.61170  0.61954  Biso   1.000  O
  Zn61     1.0000 0.94787  0.10338  0.99911  Biso   1.000  Zn
  Zn62     1.0000 0.10157  0.94967  0.99911  Biso   1.000  Zn
  Zn63     1.0000 0.10157  0.10338  0.84540  Biso   1.000  Zn
  Zn64     1.0000 0.10157  0.10338  0.99911  Biso   1.000  Zn
  H115     1.0000 0.25632  0.96625  0.15386  Biso   1.000  H
  H116     1.0000 0.77549  0.25811  0.86200  Biso   1.000  H
  H117     1.0000 0.25632  0.25811  0.67303  Biso   1.000  H
  H118     1.0000 0.96446  0.77729  0.15386  Biso   1.000  H
  H119     1.0000 0.96446  0.25811  0.15386  Biso   1.000  H
  H120     1.0000 0.25632  0.77729  0.86200  Biso   1.000  H
  S91      1.0000 0.91181  0.26772  0.70646  Biso   1.000  S
  C373     1.0000 0.26593  0.91361  0.16346  Biso   1.000  C
  C374     1.0000 0.80892  0.26772  0.80935  Biso   1.000  C
  S92      1.0000 0.26593  0.81072  0.16346  Biso   1.000  S
  S93      1.0000 0.26593  0.26772  0.80935  Biso   1.000  S
  S94      1.0000 0.80892  0.91361  0.16346  Biso   1.000  S
  C375     1.0000 0.26593  0.26772  0.70646  Biso   1.000  C
  C376     1.0000 0.91181  0.81072  0.16346  Biso   1.000  C
  S95      1.0000 0.80892  0.26772  0.16346  Biso   1.000  S
  S96      1.0000 0.26593  0.91361  0.70646  Biso   1.000  S
  C377     1.0000 0.91181  0.26772  0.16346  Biso   1.000  C
  C378     1.0000 0.26593  0.81072  0.80935  Biso   1.000  C
  C379     1.0000 0.94128  0.18681  0.83881  Biso   1.000  C
  C380     1.0000 0.89010  0.23799  0.78764  Biso   1.000  C
  C381     1.0000 0.18502  0.94307  0.08255  Biso   1.000  C
  C382     1.0000 0.23619  0.89190  0.13373  Biso   1.000  C
  C383     1.0000 0.18502  0.18681  0.83881  Biso   1.000  C
  C384     1.0000 0.23619  0.23799  0.78764  Biso   1.000  C
  C385     1.0000 0.94128  0.94307  0.08255  Biso   1.000  C
  C386     1.0000 0.89010  0.89190  0.13373  Biso   1.000  C
  C387     1.0000 0.94128  0.18681  0.08255  Biso   1.000  C
  C388     1.0000 0.89010  0.23799  0.13373  Biso   1.000  C
  C389     1.0000 0.18502  0.94307  0.83881  Biso   1.000  C
  C390     1.0000 0.23619  0.89190  0.78764  Biso   1.000  C
  C391     1.0000 0.84786  0.31427  0.67731  Biso   1.000  C
  C392     1.0000 0.31337  0.84787  0.21091  Biso   1.000  C
  C393     1.0000 0.31426  0.31427  0.74361  Biso   1.000  C
  C394     1.0000 0.78067  0.84787  0.21091  Biso   1.000  C
  C395     1.0000 0.78067  0.31427  0.21091  Biso   1.000  C
  C396     1.0000 0.31426  0.84787  0.67731  Biso   1.000  C
  O196     1.0000 0.06315  0.06494  0.96068  Biso   1.000  O
  O197     1.0000 0.90385  0.16819  0.91348  Biso   1.000  O
  O198     1.0000 0.16640  0.90564  0.06394  Biso   1.000  O
  O199     1.0000 0.01595  0.16819  0.80138  Biso   1.000  O
  O200     1.0000 0.16640  0.01774  0.06394  Biso   1.000  O
  O201     1.0000 0.16640  0.16819  0.80138  Biso   1.000  O
  O202     1.0000 0.01595  0.90564  0.06394  Biso   1.000  O
  O203     1.0000 0.16640  0.16819  0.91348  Biso   1.000  O
  O204     1.0000 0.90385  0.01774  0.06394  Biso   1.000  O
  O205     1.0000 0.01595  0.16819  0.06394  Biso   1.000  O
  O206     1.0000 0.16640  0.90564  0.91348  Biso   1.000  O
  O207     1.0000 0.90385  0.16819  0.06394  Biso   1.000  O
  O208     1.0000 0.16640  0.01774  0.80138  Biso   1.000  O
  Zn65     1.0000 0.67888  0.52695  0.42181  Biso   1.000  Zn
  Zn66     1.0000 0.52517  0.68066  0.42181  Biso   1.000  Zn
  Zn67     1.0000 0.52517  0.52695  0.57552  Biso   1.000  Zn
  Zn68     1.0000 0.52517  0.52695  0.42181  Biso   1.000  Zn
  H121     1.0000 0.37042  0.66408  0.26706  Biso   1.000  H
  H122     1.0000 0.85125  0.37222  0.55893  Biso   1.000  H
  H123     1.0000 0.37042  0.37222  0.74789  Biso   1.000  H
  H124     1.0000 0.66228  0.85305  0.26707  Biso   1.000  H
  H125     1.0000 0.66228  0.37222  0.26706  Biso   1.000  H
  H126     1.0000 0.37042  0.85305  0.55893  Biso   1.000  H
  S97      1.0000 0.71493  0.36261  0.71446  Biso   1.000  S
  C397     1.0000 0.36081  0.71672  0.25746  Biso   1.000  C
  C398     1.0000 0.81782  0.36261  0.61157  Biso   1.000  C
  S98      1.0000 0.36081  0.81962  0.25746  Biso   1.000  S
  S99      1.0000 0.36081  0.36261  0.61157  Biso   1.000  S
  S100     1.0000 0.81782  0.71672  0.25746  Biso   1.000  S
  C399     1.0000 0.36081  0.36261  0.71446  Biso   1.000  C
  C400     1.0000 0.71493  0.81962  0.25746  Biso   1.000  C
  S101     1.0000 0.81782  0.36261  0.25746  Biso   1.000  S
  S102     1.0000 0.36081  0.71672  0.71446  Biso   1.000  S
  C401     1.0000 0.71493  0.36261  0.25746  Biso   1.000  C
  C402     1.0000 0.36081  0.81962  0.61157  Biso   1.000  C
  C403     1.0000 0.68546  0.44352  0.58211  Biso   1.000  C
  C404     1.0000 0.73664  0.39234  0.63328  Biso   1.000  C
  C405     1.0000 0.44173  0.68726  0.33837  Biso   1.000  C
  C406     1.0000 0.39055  0.73843  0.28719  Biso   1.000  C
  C407     1.0000 0.44173  0.44352  0.58211  Biso   1.000  C
  C408     1.0000 0.39055  0.39234  0.63328  Biso   1.000  C
  C409     1.0000 0.68546  0.68726  0.33837  Biso   1.000  C
  C410     1.0000 0.73664  0.73843  0.28719  Biso   1.000  C
  C411     1.0000 0.68546  0.44352  0.33837  Biso   1.000  C
  C412     1.0000 0.73664  0.39234  0.28719  Biso   1.000  C
  C413     1.0000 0.44173  0.68726  0.58211  Biso   1.000  C
  C414     1.0000 0.39055  0.73843  0.63328  Biso   1.000  C
  C415     1.0000 0.78067  0.31517  0.74361  Biso   1.000  C
  C416     1.0000 0.31248  0.78246  0.21091  Biso   1.000  C
  C417     1.0000 0.31337  0.31517  0.67731  Biso   1.000  C
  C418     1.0000 0.84607  0.78246  0.21091  Biso   1.000  C
  C419     1.0000 0.84607  0.31517  0.21091  Biso   1.000  C
  C420     1.0000 0.31337  0.78246  0.74361  Biso   1.000  C
  O209     1.0000 0.56359  0.56539  0.46024  Biso   1.000  O
  O210     1.0000 0.72290  0.46214  0.50744  Biso   1.000  O
  O211     1.0000 0.46034  0.72469  0.35699  Biso   1.000  O
  O212     1.0000 0.61080  0.46214  0.61954  Biso   1.000  O
  O213     1.0000 0.46034  0.61259  0.35699  Biso   1.000  O
  O214     1.0000 0.46034  0.46214  0.61954  Biso   1.000  O
  O215     1.0000 0.61080  0.72469  0.35699  Biso   1.000  O
  O216     1.0000 0.46034  0.46214  0.50744  Biso   1.000  O
  O217     1.0000 0.72290  0.61259  0.35699  Biso   1.000  O
  O218     1.0000 0.61080  0.46214  0.35699  Biso   1.000  O
  O219     1.0000 0.46034  0.72469  0.50744  Biso   1.000  O
  O220     1.0000 0.72290  0.46214  0.35699  Biso   1.000  O
  O221     1.0000 0.46034  0.61259  0.61954  Biso   1.000  O
  Zn69     1.0000 0.94697  0.10427  0.99911  Biso   1.000  Zn
  Zn70     1.0000 0.10068  0.95056  0.99911  Biso   1.000  Zn
  Zn71     1.0000 0.10068  0.10427  0.84540  Biso   1.000  Zn
  Zn72     1.0000 0.10068  0.10427  0.99911  Biso   1.000  Zn
  H127     1.0000 0.25543  0.96715  0.15386  Biso   1.000  H
  H128     1.0000 0.77460  0.25901  0.86200  Biso   1.000  H
  H129     1.0000 0.25543  0.25901  0.67303  Biso   1.000  H
  H130     1.0000 0.96357  0.77818  0.15386  Biso   1.000  H
  H131     1.0000 0.96357  0.25901  0.15386  Biso   1.000  H
  H132     1.0000 0.25543  0.77818  0.86200  Biso   1.000  H
  S103     1.0000 0.91092  0.26862  0.70646  Biso   1.000  S
  C421     1.0000 0.26504  0.91450  0.16346  Biso   1.000  C
  C422     1.0000 0.80803  0.26862  0.80935  Biso   1.000  C
  S104     1.0000 0.26504  0.81161  0.16346  Biso   1.000  S
  S105     1.0000 0.26504  0.26862  0.80935  Biso   1.000  S
  S106     1.0000 0.80803  0.91450  0.16346  Biso   1.000  S
  C423     1.0000 0.26504  0.26862  0.70646  Biso   1.000  C
  C424     1.0000 0.91092  0.81161  0.16346  Biso   1.000  C
  S107     1.0000 0.80803  0.26862  0.16346  Biso   1.000  S
  S108     1.0000 0.26504  0.91450  0.70646  Biso   1.000  S
  C425     1.0000 0.91092  0.26862  0.16346  Biso   1.000  C
  C426     1.0000 0.26504  0.81161  0.80935  Biso   1.000  C
  C427     1.0000 0.94039  0.18770  0.83881  Biso   1.000  C
  C428     1.0000 0.88921  0.23888  0.78764  Biso   1.000  C
  C429     1.0000 0.18412  0.94397  0.08255  Biso   1.000  C
  C430     1.0000 0.23530  0.89279  0.13373  Biso   1.000  C
  C431     1.0000 0.18412  0.18770  0.83881  Biso   1.000  C
  C432     1.0000 0.23530  0.23888  0.78764  Biso   1.000  C
  C433     1.0000 0.94039  0.94397  0.08255  Biso   1.000  C
  C434     1.0000 0.88921  0.89279  0.13373  Biso   1.000  C
  C435     1.0000 0.94039  0.18770  0.08255  Biso   1.000  C
  C436     1.0000 0.88921  0.23888  0.13373  Biso   1.000  C
  C437     1.0000 0.18412  0.94397  0.83881  Biso   1.000  C
  C438     1.0000 0.23530  0.89279  0.78764  Biso   1.000  C
  C439     1.0000 0.84697  0.31517  0.67731  Biso   1.000  C
  C440     1.0000 0.31248  0.84876  0.21091  Biso   1.000  C
  C441     1.0000 0.31337  0.31517  0.74361  Biso   1.000  C
  C442     1.0000 0.77978  0.84876  0.21091  Biso   1.000  C
  C443     1.0000 0.77978  0.31517  0.21091  Biso   1.000  C
  C444     1.0000 0.31337  0.84876  0.67731  Biso   1.000  C
  O222     1.0000 0.06226  0.06583  0.96068  Biso   1.000  O
  O223     1.0000 0.90295  0.16909  0.91348  Biso   1.000  O
  O224     1.0000 0.16551  0.90653  0.06394  Biso   1.000  O
  O225     1.0000 0.01505  0.16909  0.80138  Biso   1.000  O
  O226     1.0000 0.16551  0.01863  0.06394  Biso   1.000  O
  O227     1.0000 0.16551  0.16909  0.80138  Biso   1.000  O
  O228     1.0000 0.01505  0.90653  0.06394  Biso   1.000  O
  O229     1.0000 0.16551  0.16909  0.91348  Biso   1.000  O
  O230     1.0000 0.90295  0.01863  0.06394  Biso   1.000  O
  O231     1.0000 0.01505  0.16909  0.06394  Biso   1.000  O
  O232     1.0000 0.16551  0.90653  0.91348  Biso   1.000  O
  O233     1.0000 0.90295  0.16909  0.06394  Biso   1.000  O
  O234     1.0000 0.16551  0.01863  0.80138  Biso   1.000  O
  Zn73     1.0000 0.67798  0.52785  0.42181  Biso   1.000  Zn
  Zn74     1.0000 0.52428  0.68155  0.42181  Biso   1.000  Zn
  Zn75     1.0000 0.52428  0.52785  0.57552  Biso   1.000  Zn
  Zn76     1.0000 0.52428  0.52785  0.42181  Biso   1.000  Zn
  H133     1.0000 0.36953  0.66497  0.26706  Biso   1.000  H
  H134     1.0000 0.85036  0.37311  0.55893  Biso   1.000  H
  H135     1.0000 0.36953  0.37311  0.74789  Biso   1.000  H
  H136     1.0000 0.66139  0.85394  0.26706  Biso   1.000  H
  H137     1.0000 0.66139  0.37311  0.26706  Biso   1.000  H
  H138     1.0000 0.36953  0.85394  0.55893  Biso   1.000  H
  S109     1.0000 0.71404  0.36350  0.71446  Biso   1.000  S
  C445     1.0000 0.35992  0.71762  0.25746  Biso   1.000  C
  C446     1.0000 0.81693  0.36350  0.61157  Biso   1.000  C
  S110     1.0000 0.35992  0.82051  0.25746  Biso   1.000  S
  S111     1.0000 0.35992  0.36350  0.61157  Biso   1.000  S
  S112     1.0000 0.81693  0.71762  0.25746  Biso   1.000  S
  C447     1.0000 0.35992  0.36350  0.71446  Biso   1.000  C
  C448     1.0000 0.71404  0.82051  0.25746  Biso   1.000  C
  S113     1.0000 0.81693  0.36350  0.25746  Biso   1.000  S
  S114     1.0000 0.35992  0.71762  0.71446  Biso   1.000  S
  C449     1.0000 0.71404  0.36350  0.25746  Biso   1.000  C
  C450     1.0000 0.35992  0.82051  0.61157  Biso   1.000  C
  C451     1.0000 0.68457  0.44441  0.58211  Biso   1.000  C
  C452     1.0000 0.73575  0.39324  0.63328  Biso   1.000  C
  C453     1.0000 0.44083  0.68815  0.33837  Biso   1.000  C
  C454     1.0000 0.38966  0.73933  0.28719  Biso   1.000  C
  C455     1.0000 0.44083  0.44441  0.58211  Biso   1.000  C
  C456     1.0000 0.38966  0.39324  0.63328  Biso   1.000  C
  C457     1.0000 0.68457  0.68815  0.33837  Biso   1.000  C
  C458     1.0000 0.73575  0.73933  0.28719  Biso   1.000  C
  C459     1.0000 0.68457  0.44441  0.33837  Biso   1.000  C
  C460     1.0000 0.73575  0.39324  0.28719  Biso   1.000  C
  C461     1.0000 0.44083  0.68815  0.58211  Biso   1.000  C
  C462     1.0000 0.38966  0.73933  0.63328  Biso   1.000  C
  C463     1.0000 0.77978  0.31606  0.74361  Biso   1.000  C
  C464     1.0000 0.31159  0.78335  0.21091  Biso   1.000  C
  C465     1.0000 0.31248  0.31606  0.67731  Biso   1.000  C
  C466     1.0000 0.84518  0.78335  0.21091  Biso   1.000  C
  C467     1.0000 0.84518  0.31606  0.21091  Biso   1.000  C
  C468     1.0000 0.31248  0.78335  0.74361  Biso   1.000  C
  O235     1.0000 0.56270  0.56628  0.46024  Biso   1.000  O
  O236     1.0000 0.72200  0.46303  0.50744  Biso   1.000  O
  O237     1.0000 0.45945  0.72558  0.35699  Biso   1.000  O
  O238     1.0000 0.60990  0.46303  0.61954  Biso   1.000  O
  O239     1.0000 0.45945  0.61348  0.35699  Biso   1.000  O
  O240     1.0000 0.45945  0.46303  0.61954  Biso   1.000  O
  O241     1.0000 0.60990  0.72558  0.35699  Biso   1.000  O
  O242     1.0000 0.45945  0.46303  0.50744  Biso   1.000  O
  O243     1.0000 0.72200  0.61348  0.35699  Biso   1.000  O
  O244     1.0000 0.60990  0.46303  0.35699  Biso   1.000  O
  O245     1.0000 0.45945  0.72558  0.50744  Biso   1.000  O
  O246     1.0000 0.72200  0.46303  0.35699  Biso   1.000  O
  O247     1.0000 0.45945  0.61348  0.61954  Biso   1.000  O
  Zn77     1.0000 0.94608  0.10516  0.99911  Biso   1.000  Zn
  Zn78     1.0000 0.09979  0.95145  0.99911  Biso   1.000  Zn
  Zn79     1.0000 0.09979  0.10516  0.84540  Biso   1.000  Zn
  Zn80     1.0000 0.09979  0.10516  0.99911  Biso   1.000  Zn
  H139     1.0000 0.25454  0.96804  0.15386  Biso   1.000  H
  H140     1.0000 0.77371  0.25990  0.86200  Biso   1.000  H
  H141     1.0000 0.25454  0.25990  0.67303  Biso   1.000  H
  H142     1.0000 0.96268  0.77907  0.15386  Biso   1.000  H
  H143     1.0000 0.96268  0.25990  0.15386  Biso   1.000  H
  H144     1.0000 0.25454  0.77907  0.86200  Biso   1.000  H
  S115     1.0000 0.91003  0.26951  0.70646  Biso   1.000  S
  C469     1.0000 0.26414  0.91539  0.16346  Biso   1.000  C
  C470     1.0000 0.80714  0.26951  0.80935  Biso   1.000  C
  S116     1.0000 0.26414  0.81250  0.16346  Biso   1.000  S
  S117     1.0000 0.26414  0.26951  0.80935  Biso   1.000  S
  S118     1.0000 0.80714  0.91539  0.16346  Biso   1.000  S
  C471     1.0000 0.26414  0.26951  0.70646  Biso   1.000  C
  C472     1.0000 0.91003  0.81250  0.16346  Biso   1.000  C
  S119     1.0000 0.80714  0.26951  0.16346  Biso   1.000  S
  S120     1.0000 0.26414  0.91539  0.70646  Biso   1.000  S
  C473     1.0000 0.91003  0.26951  0.16346  Biso   1.000  C
  C474     1.0000 0.26414  0.81250  0.80935  Biso   1.000  C
  C475     1.0000 0.93950  0.18860  0.83881  Biso   1.000  C
  C476     1.0000 0.88832  0.23977  0.78764  Biso   1.000  C
  C477     1.0000 0.18323  0.94486  0.08255  Biso   1.000  C
  C478     1.0000 0.23441  0.89368  0.13373  Biso   1.000  C
  C479     1.0000 0.18323  0.18860  0.83881  Biso   1.000  C
  C480     1.0000 0.23441  0.23977  0.78764  Biso   1.000  C
  C481     1.0000 0.93950  0.94486  0.08255  Biso   1.000  C
  C482     1.0000 0.88832  0.89368  0.13373  Biso   1.000  C
  C483     1.0000 0.93950  0.18860  0.08255  Biso   1.000  C
  C484     1.0000 0.88832  0.23977  0.13373  Biso   1.000  C
  C485     1.0000 0.18323  0.94486  0.83881  Biso   1.000  C
  C486     1.0000 0.23441  0.89368  0.78764  Biso   1.000  C
  C487     1.0000 0.84607  0.31606  0.67731  Biso   1.000  C
  C488     1.0000 0.31159  0.84965  0.21091  Biso   1.000  C
  C489     1.0000 0.31248  0.31606  0.74361  Biso   1.000  C
  C490     1.0000 0.77888  0.84965  0.21091  Biso   1.000  C
  C491     1.0000 0.77888  0.31606  0.21091  Biso   1.000  C
  C492     1.0000 0.31248  0.84965  0.67731  Biso   1.000  C
  O248     1.0000 0.06136  0.06673  0.96068  Biso   1.000  O
  O249     1.0000 0.90206  0.16998  0.91348  Biso   1.000  O
  O250     1.0000 0.16462  0.90743  0.06394  Biso   1.000  O
  O251     1.0000 0.01416  0.16998  0.80138  Biso   1.000  O
  O252     1.0000 0.16462  0.01953  0.06394  Biso   1.000  O
  O253     1.0000 0.16462  0.16998  0.80138  Biso   1.000  O
  O254     1.0000 0.01416  0.90743  0.06394  Biso   1.000  O
  O255     1.0000 0.16462  0.16998  0.91348  Biso   1.000  O
  O256     1.0000 0.90206  0.01953  0.06394  Biso   1.000  O
  O257     1.0000 0.01416  0.16998  0.06394  Biso   1.000  O
  O258     1.0000 0.16462  0.90743  0.91348  Biso   1.000  O
  O259     1.0000 0.90206  0.16998  0.06394  Biso   1.000  O
  O260     1.0000 0.16462  0.01953  0.80138  Biso   1.000  O
