data_image0
_cell_length_a       20.627
_cell_length_b       20.627
_cell_length_c       20.627
_cell_angle_alpha    60
_cell_angle_beta     60
_cell_angle_gamma    60

_symmetry_space_group_name_H-M    "P 1"
_symmetry_int_tables_number       1

loop_
  _symmetry_equiv_pos_as_xyz
  'x, y, z'

loop_
  _atom_site_label
  _atom_site_occupancy
  _atom_site_fract_x
  _atom_site_fract_y
  _atom_site_fract_z
  _atom_site_thermal_displace_type
  _atom_site_B_iso_or_equiv
  _atom_site_type_symbol
  C1       1.0000 0.13471  0.28843  0.28843  Biso   1.000  C
  C2       1.0000 0.28843  0.13471  0.28843  Biso   1.000  C
  C3       1.0000 0.28843  0.28843  0.13471  Biso   1.000  C
  C4       1.0000 0.28843  0.28843  0.28843  Biso   1.000  C
  C5       1.0000 0.71157  0.86529  0.71157  Biso   1.000  C
  C6       1.0000 0.86529  0.71157  0.71157  Biso   1.000  C
  C7       1.0000 0.71157  0.71157  0.86529  Biso   1.000  C
  C8       1.0000 0.71157  0.71157  0.71157  Biso   1.000  C
  C9       1.0000 0.96900  0.03100  0.50000  Biso   1.000  C
  C10      1.0000 0.03100  0.96900  0.50000  Biso   1.000  C
  C11      1.0000 0.50000  0.50000  0.96900  Biso   1.000  C
  C12      1.0000 0.50000  0.50000  0.03100  Biso   1.000  C
  C13      1.0000 0.96900  0.50000  0.50000  Biso   1.000  C
  C14      1.0000 0.03100  0.50000  0.50000  Biso   1.000  C
  C15      1.0000 0.50000  0.96900  0.03100  Biso   1.000  C
  C16      1.0000 0.50000  0.03100  0.96900  Biso   1.000  C
  C17      1.0000 0.96900  0.50000  0.03100  Biso   1.000  C
  C18      1.0000 0.03100  0.50000  0.96900  Biso   1.000  C
  C19      1.0000 0.50000  0.03100  0.50000  Biso   1.000  C
  C20      1.0000 0.50000  0.96900  0.50000  Biso   1.000  C
  C21      1.0000 0.12720  0.12720  0.37280  Biso   1.000  C
  C22      1.0000 0.07800  0.07800  0.42200  Biso   1.000  C
  C23      1.0000 0.37280  0.37280  0.12720  Biso   1.000  C
  C24      1.0000 0.42200  0.42200  0.07800  Biso   1.000  C
  C25      1.0000 0.12720  0.37280  0.37280  Biso   1.000  C
  C26      1.0000 0.07800  0.42200  0.42200  Biso   1.000  C
  C27      1.0000 0.37280  0.12720  0.12720  Biso   1.000  C
  C28      1.0000 0.42200  0.07800  0.07800  Biso   1.000  C
  C29      1.0000 0.12720  0.37280  0.12720  Biso   1.000  C
  C30      1.0000 0.07800  0.42200  0.07800  Biso   1.000  C
  C31      1.0000 0.37280  0.12720  0.37280  Biso   1.000  C
  C32      1.0000 0.42200  0.07800  0.42200  Biso   1.000  C
  C33      1.0000 0.87280  0.87280  0.62720  Biso   1.000  C
  C34      1.0000 0.92200  0.92200  0.57800  Biso   1.000  C
  C35      1.0000 0.62720  0.62720  0.87280  Biso   1.000  C
  C36      1.0000 0.57800  0.57800  0.92200  Biso   1.000  C
  C37      1.0000 0.62720  0.87280  0.62720  Biso   1.000  C
  C38      1.0000 0.57800  0.92200  0.57800  Biso   1.000  C
  C39      1.0000 0.87280  0.62720  0.87280  Biso   1.000  C
  C40      1.0000 0.92200  0.57800  0.92200  Biso   1.000  C
  C41      1.0000 0.62720  0.87280  0.87280  Biso   1.000  C
  C42      1.0000 0.57800  0.92200  0.92200  Biso   1.000  C
  C43      1.0000 0.87280  0.62720  0.62720  Biso   1.000  C
  C44      1.0000 0.92200  0.57800  0.57800  Biso   1.000  C
  C45      1.0000 0.97640  0.12880  0.44740  Biso   1.000  C
  C46      1.0000 0.12880  0.97640  0.44740  Biso   1.000  C
  C47      1.0000 0.44740  0.44740  0.97640  Biso   1.000  C
  C48      1.0000 0.44740  0.44740  0.12880  Biso   1.000  C
  C49      1.0000 0.97640  0.44740  0.44740  Biso   1.000  C
  C50      1.0000 0.12880  0.44740  0.44740  Biso   1.000  C
  C51      1.0000 0.44740  0.97640  0.12880  Biso   1.000  C
  C52      1.0000 0.44740  0.12880  0.97640  Biso   1.000  C
  C53      1.0000 0.97640  0.44740  0.12880  Biso   1.000  C
  C54      1.0000 0.12880  0.44740  0.97640  Biso   1.000  C
  C55      1.0000 0.44740  0.12880  0.44740  Biso   1.000  C
  C56      1.0000 0.44740  0.97640  0.44740  Biso   1.000  C
  C57      1.0000 0.87120  0.02360  0.55260  Biso   1.000  C
  C58      1.0000 0.02360  0.87120  0.55260  Biso   1.000  C
  C59      1.0000 0.55260  0.55260  0.02360  Biso   1.000  C
  C60      1.0000 0.55260  0.55260  0.87120  Biso   1.000  C
  C61      1.0000 0.55260  0.02360  0.55260  Biso   1.000  C
  C62      1.0000 0.55260  0.87120  0.55260  Biso   1.000  C
  C63      1.0000 0.02360  0.55260  0.87120  Biso   1.000  C
  C64      1.0000 0.87120  0.55260  0.02360  Biso   1.000  C
  C65      1.0000 0.55260  0.02360  0.87120  Biso   1.000  C
  C66      1.0000 0.55260  0.87120  0.02360  Biso   1.000  C
  C67      1.0000 0.87120  0.55260  0.55260  Biso   1.000  C
  C68      1.0000 0.02360  0.55260  0.55260  Biso   1.000  C
  C69      1.0000 0.25000  0.25000  0.25000  Biso   1.000  C
  C70      1.0000 0.75000  0.75000  0.75000  Biso   1.000  C
  C71      1.0000 0.09450  0.20050  0.35250  Biso   1.000  C
  C72      1.0000 0.20050  0.09450  0.35250  Biso   1.000  C
  C73      1.0000 0.35250  0.35250  0.09450  Biso   1.000  C
  C74      1.0000 0.35250  0.35250  0.20050  Biso   1.000  C
  C75      1.0000 0.09450  0.35250  0.35250  Biso   1.000  C
  C76      1.0000 0.20050  0.35250  0.35250  Biso   1.000  C
  C77      1.0000 0.35250  0.09450  0.20050  Biso   1.000  C
  C78      1.0000 0.35250  0.20050  0.09450  Biso   1.000  C
  C79      1.0000 0.09450  0.35250  0.20050  Biso   1.000  C
  C80      1.0000 0.20050  0.35250  0.09450  Biso   1.000  C
  C81      1.0000 0.35250  0.20050  0.35250  Biso   1.000  C
  C82      1.0000 0.35250  0.09450  0.35250  Biso   1.000  C
  C83      1.0000 0.79950  0.90550  0.64750  Biso   1.000  C
  C84      1.0000 0.90550  0.79950  0.64750  Biso   1.000  C
  C85      1.0000 0.64750  0.64750  0.90550  Biso   1.000  C
  C86      1.0000 0.64750  0.64750  0.79950  Biso   1.000  C
  C87      1.0000 0.64750  0.90550  0.64750  Biso   1.000  C
  C88      1.0000 0.64750  0.79950  0.64750  Biso   1.000  C
  C89      1.0000 0.90550  0.64750  0.79950  Biso   1.000  C
  C90      1.0000 0.79950  0.64750  0.90550  Biso   1.000  C
  C91      1.0000 0.64750  0.90550  0.79950  Biso   1.000  C
  C92      1.0000 0.64750  0.79950  0.90550  Biso   1.000  C
  C93      1.0000 0.79950  0.64750  0.64750  Biso   1.000  C
  C94      1.0000 0.90550  0.64750  0.64750  Biso   1.000  C
  C95      1.0000 0.44828  0.44828  0.18318  Biso   1.000  C
  C96      1.0000 0.55172  0.55172  0.07973  Biso   1.000  C
  C97      1.0000 0.48116  0.48941  0.16342  Biso   1.000  C
  C98      1.0000 0.47978  0.38569  0.21764  Biso   1.000  C
  C99      1.0000 0.38476  0.47060  0.22285  Biso   1.000  C
  C100     1.0000 0.52027  0.50933  0.13391  Biso   1.000  C
  C101     1.0000 0.51879  0.61401  0.08395  Biso   1.000  C
  C102     1.0000 0.61524  0.53096  0.07746  Biso   1.000  C
  C103     1.0000 0.95328  0.42512  0.42512  Biso   1.000  C
  C104     1.0000 0.81682  0.55172  0.55172  Biso   1.000  C
  C105     1.0000 0.97070  0.35770  0.45232  Biso   1.000  C
  C106     1.0000 0.98017  0.44279  0.35767  Biso   1.000  C
  C107     1.0000 0.88584  0.45258  0.44309  Biso   1.000  C
  C108     1.0000 0.81035  0.49054  0.58974  Biso   1.000  C
  C109     1.0000 0.82420  0.56535  0.48808  Biso   1.000  C
  C110     1.0000 0.76154  0.59841  0.57648  Biso   1.000  C
  C111     1.0000 0.42512  0.19649  0.95328  Biso   1.000  C
  C112     1.0000 0.57488  0.04672  0.80351  Biso   1.000  C
  C113     1.0000 0.40567  0.21863  0.90076  Biso   1.000  C
  C114     1.0000 0.47484  0.21893  0.93345  Biso   1.000  C
  C115     1.0000 0.52267  0.09167  0.78130  Biso   1.000  C
  C116     1.0000 0.61960  0.07653  0.78116  Biso   1.000  C
  C117     1.0000 0.42512  0.95328  0.42512  Biso   1.000  C
  C118     1.0000 0.55172  0.81682  0.55172  Biso   1.000  C
  C119     1.0000 0.44327  0.88582  0.45242  Biso   1.000  C
  C120     1.0000 0.45215  0.97089  0.35768  Biso   1.000  C
  C121     1.0000 0.35765  0.98000  0.44298  Biso   1.000  C
  C122     1.0000 0.58352  0.76084  0.59273  Biso   1.000  C
  C123     1.0000 0.58316  0.81471  0.48866  Biso   1.000  C
  C124     1.0000 0.48762  0.82053  0.57291  Biso   1.000  C
  C125     1.0000 0.18318  0.44828  0.92027  Biso   1.000  C
  C126     1.0000 0.04672  0.57488  0.80351  Biso   1.000  C
  C127     1.0000 0.16407  0.47422  0.86662  Biso   1.000  C
  C128     1.0000 0.22651  0.38514  0.92522  Biso   1.000  C
  C129     1.0000 0.21333  0.48634  0.91285  Biso   1.000  C
  C130     1.0000 0.07679  0.52267  0.78116  Biso   1.000  C
  C131     1.0000 0.09145  0.60463  0.78130  Biso   1.000  C
  C132     1.0000 0.92027  0.18318  0.44828  Biso   1.000  C
  C133     1.0000 0.81682  0.07973  0.55172  Biso   1.000  C
  C134     1.0000 0.86812  0.16567  0.50121  Biso   1.000  C
  C135     1.0000 0.90755  0.20768  0.39102  Biso   1.000  C
  C136     1.0000 0.92902  0.23056  0.45347  Biso   1.000  C
  C137     1.0000 0.76327  0.06519  0.60463  Biso   1.000  C
  C138     1.0000 0.80450  0.10388  0.49432  Biso   1.000  C
  C139     1.0000 0.82832  0.12625  0.55535  Biso   1.000  C
  C140     1.0000 0.37256  0.21958  0.00250  Biso   1.000  C
  C141     1.0000 0.99505  0.61963  0.78040  Biso   1.000  C
  C142     1.0000 0.60466  0.99509  0.78040  Biso   1.000  C
  O1       1.0000 0.68155  0.52606  0.42181  Biso   1.000  O
  O2       1.0000 0.52785  0.67977  0.42181  Biso   1.000  O
  O3       1.0000 0.52785  0.52606  0.57552  Biso   1.000  O
  O4       1.0000 0.52785  0.52606  0.42181  Biso   1.000  O
  O5       1.0000 0.37310  0.66318  0.26707  Biso   1.000  O
  O6       1.0000 0.85393  0.37132  0.55893  Biso   1.000  O
  O7       1.0000 0.37310  0.37132  0.74789  Biso   1.000  O
  O8       1.0000 0.66496  0.85215  0.26707  Biso   1.000  O
  O9       1.0000 0.66496  0.37132  0.26707  Biso   1.000  O
  O10      1.0000 0.37310  0.85215  0.55893  Biso   1.000  O
  O11      1.0000 0.71761  0.36172  0.71446  Biso   1.000  O
  O12      1.0000 0.36349  0.71583  0.25746  Biso   1.000  O
  O13      1.0000 0.82050  0.36172  0.61157  Biso   1.000  O
  O14      1.0000 0.36349  0.81872  0.25746  Biso   1.000  O
  O15      1.0000 0.36349  0.36172  0.61157  Biso   1.000  O
  O16      1.0000 0.82050  0.71583  0.25746  Biso   1.000  O
  O17      1.0000 0.36349  0.36172  0.71446  Biso   1.000  O
  O18      1.0000 0.71761  0.81872  0.25746  Biso   1.000  O
  O19      1.0000 0.82050  0.36172  0.25746  Biso   1.000  O
  O20      1.0000 0.36349  0.71583  0.71446  Biso   1.000  O
  O21      1.0000 0.71761  0.36172  0.25746  Biso   1.000  O
  O22      1.0000 0.36349  0.81872  0.61157  Biso   1.000  O
  O23      1.0000 0.68814  0.44263  0.58211  Biso   1.000  O
  O24      1.0000 0.73932  0.39145  0.63328  Biso   1.000  O
  O25      1.0000 0.44440  0.68637  0.33837  Biso   1.000  O
  O26      1.0000 0.39323  0.73754  0.28719  Biso   1.000  O
  O27      1.0000 0.44440  0.44263  0.58211  Biso   1.000  O
  O28      1.0000 0.39323  0.39145  0.63328  Biso   1.000  O
  O29      1.0000 0.68814  0.68637  0.33837  Biso   1.000  O
  O30      1.0000 0.73932  0.73754  0.28719  Biso   1.000  O
  O31      1.0000 0.68814  0.44263  0.33837  Biso   1.000  O
  O32      1.0000 0.73932  0.39145  0.28719  Biso   1.000  O
  O33      1.0000 0.44440  0.68637  0.58211  Biso   1.000  O
  O34      1.0000 0.39323  0.73754  0.63328  Biso   1.000  O
  O35      1.0000 0.78334  0.31427  0.74361  Biso   1.000  O
  O36      1.0000 0.31516  0.78157  0.21091  Biso   1.000  O
  O37      1.0000 0.31605  0.31427  0.67731  Biso   1.000  O
  O38      1.0000 0.84875  0.78157  0.21091  Biso   1.000  O
  O39      1.0000 0.84875  0.31427  0.21091  Biso   1.000  O
  O40      1.0000 0.31605  0.78157  0.74361  Biso   1.000  O
  O41      1.0000 0.56627  0.56450  0.46024  Biso   1.000  O
  O42      1.0000 0.72557  0.46124  0.50744  Biso   1.000  O
  O43      1.0000 0.46302  0.72380  0.35699  Biso   1.000  O
  O44      1.0000 0.61347  0.46124  0.61954  Biso   1.000  O
  O45      1.0000 0.46302  0.61170  0.35699  Biso   1.000  O
  O46      1.0000 0.46302  0.46124  0.61954  Biso   1.000  O
  O47      1.0000 0.61347  0.72380  0.35699  Biso   1.000  O
  O48      1.0000 0.46302  0.46124  0.50744  Biso   1.000  O
  O49      1.0000 0.72557  0.61170  0.35699  Biso   1.000  O
  O50      1.0000 0.61347  0.46124  0.35699  Biso   1.000  O
  O51      1.0000 0.46302  0.72380  0.50744  Biso   1.000  O
  O52      1.0000 0.72557  0.46124  0.35699  Biso   1.000  O
  O53      1.0000 0.46302  0.61170  0.61954  Biso   1.000  O
  O54      1.0000 0.94965  0.10338  0.99911  Biso   1.000  O
  O55      1.0000 0.10336  0.94967  0.99911  Biso   1.000  O
  O56      1.0000 0.10336  0.10338  0.84540  Biso   1.000  O
  O57      1.0000 0.10336  0.10338  0.99911  Biso   1.000  O
  O58      1.0000 0.25810  0.96625  0.15386  Biso   1.000  O
  O59      1.0000 0.77728  0.25811  0.86200  Biso   1.000  O
  O60      1.0000 0.25810  0.25811  0.67303  Biso   1.000  O
  O61      1.0000 0.96624  0.77729  0.15386  Biso   1.000  O
  O62      1.0000 0.96624  0.25811  0.15386  Biso   1.000  O
  O63      1.0000 0.25810  0.77729  0.86200  Biso   1.000  O
  O64      1.0000 0.91360  0.26772  0.70646  Biso   1.000  O
  O65      1.0000 0.26771  0.91361  0.16346  Biso   1.000  O
  O66      1.0000 0.81071  0.26772  0.80935  Biso   1.000  O
  O67      1.0000 0.26771  0.81072  0.16346  Biso   1.000  O
  O68      1.0000 0.26771  0.26772  0.80935  Biso   1.000  O
  O69      1.0000 0.81071  0.91361  0.16346  Biso   1.000  O
  O70      1.0000 0.26771  0.26772  0.70646  Biso   1.000  O
  O71      1.0000 0.91360  0.81072  0.16346  Biso   1.000  O
  O72      1.0000 0.81071  0.26772  0.16346  Biso   1.000  O
  O73      1.0000 0.26771  0.91361  0.70646  Biso   1.000  O
  O74      1.0000 0.91360  0.26772  0.16346  Biso   1.000  O
  O75      1.0000 0.26771  0.81072  0.80935  Biso   1.000  O
  O76      1.0000 0.94306  0.18681  0.83881  Biso   1.000  O
  O77      1.0000 0.89189  0.23799  0.78764  Biso   1.000  O
  O78      1.0000 0.18680  0.94307  0.08255  Biso   1.000  O
  O79      1.0000 0.23798  0.89190  0.13373  Biso   1.000  O
  O80      1.0000 0.18680  0.18681  0.83881  Biso   1.000  O
  O81      1.0000 0.23798  0.23799  0.78764  Biso   1.000  O
  O82      1.0000 0.94306  0.94307  0.08255  Biso   1.000  O
  O83      1.0000 0.89189  0.89190  0.13373  Biso   1.000  O
  O84      1.0000 0.94306  0.18681  0.08255  Biso   1.000  O
  O85      1.0000 0.89189  0.23799  0.13373  Biso   1.000  O
  O86      1.0000 0.18680  0.94307  0.83881  Biso   1.000  O
  O87      1.0000 0.23798  0.89190  0.78764  Biso   1.000  O
  O88      1.0000 0.84964  0.31427  0.67731  Biso   1.000  O
  O89      1.0000 0.31516  0.84787  0.21091  Biso   1.000  O
  O90      1.0000 0.31605  0.31427  0.74361  Biso   1.000  O
  O91      1.0000 0.78245  0.84787  0.21091  Biso   1.000  O
  O92      1.0000 0.78245  0.31427  0.21091  Biso   1.000  O
  O93      1.0000 0.31605  0.84787  0.67731  Biso   1.000  O
  O94      1.0000 0.06493  0.06494  0.96068  Biso   1.000  O
  O95      1.0000 0.90563  0.16819  0.91348  Biso   1.000  O
  O96      1.0000 0.16818  0.90564  0.06394  Biso   1.000  O
  O97      1.0000 0.01773  0.16819  0.80138  Biso   1.000  O
  O98      1.0000 0.16818  0.01774  0.06394  Biso   1.000  O
  O99      1.0000 0.16818  0.16819  0.80138  Biso   1.000  O
  O100     1.0000 0.01773  0.90564  0.06394  Biso   1.000  O
  O101     1.0000 0.16818  0.16819  0.91348  Biso   1.000  O
  O102     1.0000 0.90563  0.01774  0.06394  Biso   1.000  O
  O103     1.0000 0.01773  0.16819  0.06394  Biso   1.000  O
  O104     1.0000 0.16818  0.90564  0.91348  Biso   1.000  O
  O105     1.0000 0.90563  0.16819  0.06394  Biso   1.000  O
  O106     1.0000 0.16818  0.01774  0.80138  Biso   1.000  O
  O107     1.0000 0.68066  0.52695  0.42181  Biso   1.000  O
  O108     1.0000 0.52695  0.68066  0.42181  Biso   1.000  O
  O109     1.0000 0.52695  0.52695  0.57552  Biso   1.000  O
  O110     1.0000 0.52695  0.52695  0.42181  Biso   1.000  O
  O111     1.0000 0.37221  0.66408  0.26707  Biso   1.000  O
  O112     1.0000 0.85304  0.37222  0.55893  Biso   1.000  O
  O113     1.0000 0.37221  0.37222  0.74789  Biso   1.000  O
  O114     1.0000 0.66407  0.85305  0.26707  Biso   1.000  O
  O115     1.0000 0.66407  0.37222  0.26707  Biso   1.000  O
  O116     1.0000 0.37221  0.85305  0.55893  Biso   1.000  O
  O117     1.0000 0.71671  0.36261  0.71446  Biso   1.000  O
  O118     1.0000 0.36260  0.71672  0.25746  Biso   1.000  O
  O119     1.0000 0.81961  0.36261  0.61157  Biso   1.000  O
  O120     1.0000 0.36260  0.81962  0.25746  Biso   1.000  O
  O121     1.0000 0.36260  0.36261  0.61157  Biso   1.000  O
  O122     1.0000 0.81961  0.71672  0.25746  Biso   1.000  O
  O123     1.0000 0.36260  0.36261  0.71446  Biso   1.000  O
  O124     1.0000 0.71671  0.81962  0.25746  Biso   1.000  O
  O125     1.0000 0.81961  0.36261  0.25746  Biso   1.000  O
  O126     1.0000 0.36260  0.71672  0.71446  Biso   1.000  O
  O127     1.0000 0.71671  0.36261  0.25746  Biso   1.000  O
  O128     1.0000 0.36260  0.81962  0.61157  Biso   1.000  O
  O129     1.0000 0.68725  0.44352  0.58211  Biso   1.000  O
  O130     1.0000 0.73842  0.39234  0.63328  Biso   1.000  O
  O131     1.0000 0.44351  0.68726  0.33837  Biso   1.000  O
  O132     1.0000 0.39233  0.73843  0.28719  Biso   1.000  O
  O133     1.0000 0.44351  0.44352  0.58211  Biso   1.000  O
  O134     1.0000 0.39233  0.39234  0.63328  Biso   1.000  O
  O135     1.0000 0.68725  0.68726  0.33837  Biso   1.000  O
  O136     1.0000 0.73842  0.73843  0.28719  Biso   1.000  O
  O137     1.0000 0.68725  0.44352  0.33837  Biso   1.000  O
  O138     1.0000 0.73842  0.39234  0.28719  Biso   1.000  O
  O139     1.0000 0.44351  0.68726  0.58211  Biso   1.000  O
  O140     1.0000 0.39233  0.73843  0.63328  Biso   1.000  O
  O141     1.0000 0.78245  0.31517  0.74361  Biso   1.000  O
  O142     1.0000 0.31426  0.78246  0.21091  Biso   1.000  O
  O143     1.0000 0.31516  0.31517  0.67731  Biso   1.000  O
  O144     1.0000 0.84786  0.78246  0.21091  Biso   1.000  O
  O145     1.0000 0.84786  0.31517  0.21091  Biso   1.000  O
  O146     1.0000 0.31516  0.78246  0.74361  Biso   1.000  O
  O147     1.0000 0.56538  0.56539  0.46024  Biso   1.000  O
  O148     1.0000 0.72468  0.46214  0.50744  Biso   1.000  O
  O149     1.0000 0.46213  0.72469  0.35699  Biso   1.000  O
  O150     1.0000 0.61258  0.46214  0.61954  Biso   1.000  O
  O151     1.0000 0.46213  0.61259  0.35699  Biso   1.000  O
  O152     1.0000 0.46213  0.46214  0.61954  Biso   1.000  O
  O153     1.0000 0.61258  0.72469  0.35699  Biso   1.000  O
  O154     1.0000 0.46213  0.46214  0.50744  Biso   1.000  O
  O155     1.0000 0.72468  0.61259  0.35699  Biso   1.000  O
  O156     1.0000 0.61258  0.46214  0.35699  Biso   1.000  O
  O157     1.0000 0.46213  0.72469  0.50744  Biso   1.000  O
  O158     1.0000 0.72468  0.46214  0.35699  Biso   1.000  O
  O159     1.0000 0.46213  0.61259  0.61954  Biso   1.000  O
  O160     1.0000 0.94876  0.10427  0.99911  Biso   1.000  O
  O161     1.0000 0.10246  0.95056  0.99911  Biso   1.000  O
  O162     1.0000 0.10246  0.10427  0.84540  Biso   1.000  O
  O163     1.0000 0.10246  0.10427  0.99911  Biso   1.000  O
  O164     1.0000 0.25721  0.96715  0.15386  Biso   1.000  O
  O165     1.0000 0.77638  0.25901  0.86200  Biso   1.000  O
  O166     1.0000 0.25721  0.25901  0.67303  Biso   1.000  O
  O167     1.0000 0.96535  0.77818  0.15386  Biso   1.000  O
  O168     1.0000 0.96535  0.25901  0.15386  Biso   1.000  O
  O169     1.0000 0.25721  0.77818  0.86200  Biso   1.000  O
  O170     1.0000 0.91271  0.26862  0.70646  Biso   1.000  O
  O171     1.0000 0.26682  0.91450  0.16346  Biso   1.000  O
  O172     1.0000 0.80981  0.26862  0.80935  Biso   1.000  O
  O173     1.0000 0.26682  0.81161  0.16346  Biso   1.000  O
  O174     1.0000 0.26682  0.26862  0.80935  Biso   1.000  O
  O175     1.0000 0.80981  0.91450  0.16346  Biso   1.000  O
  O176     1.0000 0.26682  0.26862  0.70646  Biso   1.000  O
  O177     1.0000 0.91271  0.81161  0.16346  Biso   1.000  O
  O178     1.0000 0.80981  0.26862  0.16346  Biso   1.000  O
  O179     1.0000 0.26682  0.91450  0.70646  Biso   1.000  O
  O180     1.0000 0.91271  0.26862  0.16346  Biso   1.000  O
  O181     1.0000 0.26682  0.81161  0.80935  Biso   1.000  O
  O182     1.0000 0.94217  0.18770  0.83881  Biso   1.000  O
  O183     1.0000 0.89100  0.23888  0.78764  Biso   1.000  O
  O184     1.0000 0.18591  0.94397  0.08255  Biso   1.000  O
  O185     1.0000 0.23708  0.89279  0.13373  Biso   1.000  O
  O186     1.0000 0.18591  0.18770  0.83881  Biso   1.000  O
  O187     1.0000 0.23708  0.23888  0.78764  Biso   1.000  O
  O188     1.0000 0.94217  0.94397  0.08255  Biso   1.000  O
  O189     1.0000 0.89100  0.89279  0.13373  Biso   1.000  O
  O190     1.0000 0.94217  0.18770  0.08255  Biso   1.000  O
  O191     1.0000 0.89100  0.23888  0.13373  Biso   1.000  O
  O192     1.0000 0.18591  0.94397  0.83881  Biso   1.000  O
  O193     1.0000 0.23708  0.89279  0.78764  Biso   1.000  O
  O194     1.0000 0.84875  0.31517  0.67731  Biso   1.000  O
  O195     1.0000 0.31426  0.84876  0.21091  Biso   1.000  O
  O196     1.0000 0.31516  0.31517  0.74361  Biso   1.000  O
  O197     1.0000 0.78156  0.84876  0.21091  Biso   1.000  O
  O198     1.0000 0.78156  0.31517  0.21091  Biso   1.000  O
  O199     1.0000 0.31516  0.84876  0.67731  Biso   1.000  O
  O200     1.0000 0.06404  0.06583  0.96068  Biso   1.000  O
  O201     1.0000 0.90474  0.16909  0.91348  Biso   1.000  O
  O202     1.0000 0.16729  0.90653  0.06394  Biso   1.000  O
  O203     1.0000 0.01684  0.16909  0.80138  Biso   1.000  O
  O204     1.0000 0.16729  0.01863  0.06394  Biso   1.000  O
  O205     1.0000 0.16729  0.16909  0.80138  Biso   1.000  O
  O206     1.0000 0.01684  0.90653  0.06394  Biso   1.000  O
  O207     1.0000 0.16729  0.16909  0.91348  Biso   1.000  O
  O208     1.0000 0.90474  0.01863  0.06394  Biso   1.000  O
  O209     1.0000 0.01684  0.16909  0.06394  Biso   1.000  O
  O210     1.0000 0.16729  0.90653  0.91348  Biso   1.000  O
  O211     1.0000 0.90474  0.16909  0.06394  Biso   1.000  O
  O212     1.0000 0.16729  0.01863  0.80138  Biso   1.000  O
  O213     1.0000 0.67977  0.52785  0.42181  Biso   1.000  O
  O214     1.0000 0.52606  0.68155  0.42181  Biso   1.000  O
  O215     1.0000 0.52606  0.52785  0.57552  Biso   1.000  O
  O216     1.0000 0.52606  0.52785  0.42181  Biso   1.000  O
  O217     1.0000 0.37131  0.66497  0.26707  Biso   1.000  O
  O218     1.0000 0.85214  0.37311  0.55893  Biso   1.000  O
  O219     1.0000 0.37131  0.37311  0.74789  Biso   1.000  O
  O220     1.0000 0.66317  0.85394  0.26707  Biso   1.000  O
  O221     1.0000 0.66317  0.37311  0.26707  Biso   1.000  O
  O222     1.0000 0.37131  0.85394  0.55893  Biso   1.000  O
  O223     1.0000 0.71582  0.36350  0.71446  Biso   1.000  O
  O224     1.0000 0.36171  0.71762  0.25746  Biso   1.000  O
  O225     1.0000 0.81871  0.36350  0.61157  Biso   1.000  O
  O226     1.0000 0.36171  0.82051  0.25746  Biso   1.000  O
  O227     1.0000 0.36171  0.36350  0.61157  Biso   1.000  O
  O228     1.0000 0.81871  0.71762  0.25746  Biso   1.000  O
  O229     1.0000 0.36171  0.36350  0.71446  Biso   1.000  O
  O230     1.0000 0.71582  0.82051  0.25746  Biso   1.000  O
  O231     1.0000 0.81871  0.36350  0.25746  Biso   1.000  O
  O232     1.0000 0.36171  0.71762  0.71446  Biso   1.000  O
  O233     1.0000 0.71582  0.36350  0.25746  Biso   1.000  O
  O234     1.0000 0.36171  0.82051  0.61157  Biso   1.000  O
  O235     1.0000 0.68636  0.44441  0.58211  Biso   1.000  O
  O236     1.0000 0.73753  0.39324  0.63328  Biso   1.000  O
  O237     1.0000 0.44262  0.68815  0.33837  Biso   1.000  O
  O238     1.0000 0.39144  0.73933  0.28719  Biso   1.000  O
  O239     1.0000 0.44262  0.44441  0.58211  Biso   1.000  O
  O240     1.0000 0.39144  0.39324  0.63328  Biso   1.000  O
  O241     1.0000 0.68636  0.68815  0.33837  Biso   1.000  O
  O242     1.0000 0.73753  0.73933  0.28719  Biso   1.000  O
  O243     1.0000 0.68636  0.44441  0.33837  Biso   1.000  O
  O244     1.0000 0.73753  0.39324  0.28719  Biso   1.000  O
  O245     1.0000 0.44262  0.68815  0.58211  Biso   1.000  O
  O246     1.0000 0.39144  0.73933  0.63328  Biso   1.000  O
  O247     1.0000 0.78156  0.31606  0.74361  Biso   1.000  O
  O248     1.0000 0.31337  0.78335  0.21091  Biso   1.000  O
  O249     1.0000 0.31426  0.31606  0.67731  Biso   1.000  O
  O250     1.0000 0.84697  0.78335  0.21091  Biso   1.000  O
  O251     1.0000 0.84697  0.31606  0.21091  Biso   1.000  O
  O252     1.0000 0.31426  0.78335  0.74361  Biso   1.000  O
  O253     1.0000 0.56449  0.56628  0.46024  Biso   1.000  O
  O254     1.0000 0.72379  0.46303  0.50744  Biso   1.000  O
  O255     1.0000 0.46123  0.72558  0.35699  Biso   1.000  O
  O256     1.0000 0.61169  0.46303  0.61954  Biso   1.000  O
  O257     1.0000 0.46123  0.61348  0.35699  Biso   1.000  O
  O258     1.0000 0.46123  0.46303  0.61954  Biso   1.000  O
  O259     1.0000 0.61169  0.72558  0.35699  Biso   1.000  O
  O260     1.0000 0.46123  0.46303  0.50744  Biso   1.000  O
  O261     1.0000 0.72379  0.61348  0.35699  Biso   1.000  O
  O262     1.0000 0.61169  0.46303  0.35699  Biso   1.000  O
  O263     1.0000 0.46123  0.72558  0.50744  Biso   1.000  O
  O264     1.0000 0.72379  0.46303  0.35699  Biso   1.000  O
  O265     1.0000 0.46123  0.61348  0.61954  Biso   1.000  O
  O266     1.0000 0.94787  0.10516  0.99911  Biso   1.000  O
  O267     1.0000 0.10157  0.95145  0.99911  Biso   1.000  O
  O268     1.0000 0.10157  0.10516  0.84540  Biso   1.000  O
  O269     1.0000 0.10157  0.10516  0.99911  Biso   1.000  O
  O270     1.0000 0.25632  0.96804  0.15386  Biso   1.000  O
  O271     1.0000 0.77549  0.25990  0.86200  Biso   1.000  O
  O272     1.0000 0.25632  0.25990  0.67303  Biso   1.000  O
  O273     1.0000 0.96446  0.77907  0.15386  Biso   1.000  O
  O274     1.0000 0.96446  0.25990  0.15386  Biso   1.000  O
  O275     1.0000 0.25632  0.77907  0.86200  Biso   1.000  O
  O276     1.0000 0.91181  0.26951  0.70646  Biso   1.000  O
  O277     1.0000 0.26593  0.91539  0.16346  Biso   1.000  O
  O278     1.0000 0.80892  0.26951  0.80935  Biso   1.000  O
  O279     1.0000 0.26593  0.81250  0.16346  Biso   1.000  O
  O280     1.0000 0.26593  0.26951  0.80935  Biso   1.000  O
  O281     1.0000 0.80892  0.91539  0.16346  Biso   1.000  O
  O282     1.0000 0.26593  0.26951  0.70646  Biso   1.000  O
  O283     1.0000 0.91181  0.81250  0.16346  Biso   1.000  O
  O284     1.0000 0.80892  0.26951  0.16346  Biso   1.000  O
  O285     1.0000 0.26593  0.91539  0.70646  Biso   1.000  O
  O286     1.0000 0.91181  0.26951  0.16346  Biso   1.000  O
  O287     1.0000 0.26593  0.81250  0.80935  Biso   1.000  O
  O288     1.0000 0.94128  0.18860  0.83881  Biso   1.000  O
  O289     1.0000 0.89010  0.23977  0.78764  Biso   1.000  O
  O290     1.0000 0.18502  0.94486  0.08255  Biso   1.000  O
  O291     1.0000 0.23619  0.89368  0.13373  Biso   1.000  O
  O292     1.0000 0.18502  0.18860  0.83881  Biso   1.000  O
  O293     1.0000 0.23619  0.23977  0.78764  Biso   1.000  O
  O294     1.0000 0.94128  0.94486  0.08255  Biso   1.000  O
  O295     1.0000 0.89010  0.89368  0.13373  Biso   1.000  O
  O296     1.0000 0.94128  0.18860  0.08255  Biso   1.000  O
  O297     1.0000 0.89010  0.23977  0.13373  Biso   1.000  O
  O298     1.0000 0.18502  0.94486  0.83881  Biso   1.000  O
  O299     1.0000 0.23619  0.89368  0.78764  Biso   1.000  O
  O300     1.0000 0.84786  0.31606  0.67731  Biso   1.000  O
  O301     1.0000 0.31337  0.84965  0.21091  Biso   1.000  O
  O302     1.0000 0.31426  0.31606  0.74361  Biso   1.000  O
  O303     1.0000 0.78067  0.84965  0.21091  Biso   1.000  O
  O304     1.0000 0.78067  0.31606  0.21091  Biso   1.000  O
  O305     1.0000 0.31426  0.84965  0.67731  Biso   1.000  O
  O306     1.0000 0.06315  0.06673  0.96068  Biso   1.000  O
  O307     1.0000 0.90385  0.16998  0.91348  Biso   1.000  O
  O308     1.0000 0.16640  0.90743  0.06394  Biso   1.000  O
  O309     1.0000 0.01595  0.16998  0.80138  Biso   1.000  O
  O310     1.0000 0.16640  0.01953  0.06394  Biso   1.000  O
  O311     1.0000 0.16640  0.16998  0.80138  Biso   1.000  O
  O312     1.0000 0.01595  0.90743  0.06394  Biso   1.000  O
  O313     1.0000 0.16640  0.16998  0.91348  Biso   1.000  O
  O314     1.0000 0.90385  0.01953  0.06394  Biso   1.000  O
  O315     1.0000 0.01595  0.16998  0.06394  Biso   1.000  O
  O316     1.0000 0.16640  0.90743  0.91348  Biso   1.000  O
  O317     1.0000 0.90385  0.16998  0.06394  Biso   1.000  O
  O318     1.0000 0.16640  0.01953  0.80138  Biso   1.000  O
  O319     1.0000 0.68066  0.52606  0.42181  Biso   1.000  O
  O320     1.0000 0.52695  0.67977  0.42181  Biso   1.000  O
  O321     1.0000 0.52695  0.52606  0.57552  Biso   1.000  O
  O322     1.0000 0.52695  0.52606  0.42181  Biso   1.000  O
  O323     1.0000 0.37221  0.66318  0.26707  Biso   1.000  O
  O324     1.0000 0.85304  0.37132  0.55893  Biso   1.000  O
  O325     1.0000 0.37221  0.37132  0.74789  Biso   1.000  O
  O326     1.0000 0.66407  0.85215  0.26707  Biso   1.000  O
  O327     1.0000 0.66407  0.37132  0.26707  Biso   1.000  O
  O328     1.0000 0.37221  0.85215  0.55893  Biso   1.000  O
  O329     1.0000 0.71671  0.36172  0.71446  Biso   1.000  O
  O330     1.0000 0.36260  0.71583  0.25746  Biso   1.000  O
  O331     1.0000 0.81961  0.36172  0.61157  Biso   1.000  O
  O332     1.0000 0.36260  0.81872  0.25746  Biso   1.000  O
  O333     1.0000 0.36260  0.36172  0.61157  Biso   1.000  O
  O334     1.0000 0.81961  0.71583  0.25746  Biso   1.000  O
  O335     1.0000 0.36260  0.36172  0.71446  Biso   1.000  O
  O336     1.0000 0.71671  0.81872  0.25746  Biso   1.000  O
  O337     1.0000 0.81961  0.36172  0.25746  Biso   1.000  O
  O338     1.0000 0.36260  0.71583  0.71446  Biso   1.000  O
  O339     1.0000 0.71671  0.36172  0.25746  Biso   1.000  O
  O340     1.0000 0.36260  0.81872  0.61157  Biso   1.000  O
  O341     1.0000 0.68725  0.44263  0.58211  Biso   1.000  O
  O342     1.0000 0.73842  0.39145  0.63328  Biso   1.000  O
  O343     1.0000 0.44351  0.68637  0.33837  Biso   1.000  O
  O344     1.0000 0.39233  0.73754  0.28719  Biso   1.000  O
  O345     1.0000 0.44351  0.44263  0.58211  Biso   1.000  O
  O346     1.0000 0.39233  0.39145  0.63328  Biso   1.000  O
  O347     1.0000 0.68725  0.68637  0.33837  Biso   1.000  O
  O348     1.0000 0.73842  0.73754  0.28719  Biso   1.000  O
  O349     1.0000 0.68725  0.44263  0.33837  Biso   1.000  O
  O350     1.0000 0.73842  0.39145  0.28719  Biso   1.000  O
  O351     1.0000 0.44351  0.68637  0.58211  Biso   1.000  O
  O352     1.0000 0.39233  0.73754  0.63328  Biso   1.000  O
  O353     1.0000 0.78245  0.31427  0.74361  Biso   1.000  O
  O354     1.0000 0.31426  0.78157  0.21091  Biso   1.000  O
  O355     1.0000 0.31516  0.31427  0.67731  Biso   1.000  O
  O356     1.0000 0.84786  0.78157  0.21091  Biso   1.000  O
  O357     1.0000 0.84786  0.31427  0.21091  Biso   1.000  O
  O358     1.0000 0.31516  0.78157  0.74361  Biso   1.000  O
  O359     1.0000 0.56538  0.56450  0.46024  Biso   1.000  O
  O360     1.0000 0.72468  0.46124  0.50744  Biso   1.000  O
  O361     1.0000 0.46213  0.72380  0.35699  Biso   1.000  O
  O362     1.0000 0.61258  0.46124  0.61954  Biso   1.000  O
  O363     1.0000 0.46213  0.61170  0.35699  Biso   1.000  O
  O364     1.0000 0.46213  0.46124  0.61954  Biso   1.000  O
  O365     1.0000 0.61258  0.72380  0.35699  Biso   1.000  O
  O366     1.0000 0.46213  0.46124  0.50744  Biso   1.000  O
  O367     1.0000 0.72468  0.61170  0.35699  Biso   1.000  O
  O368     1.0000 0.61258  0.46124  0.35699  Biso   1.000  O
  O369     1.0000 0.46213  0.72380  0.50744  Biso   1.000  O
  O370     1.0000 0.72468  0.46124  0.35699  Biso   1.000  O
  O371     1.0000 0.46213  0.61170  0.61954  Biso   1.000  O
  O372     1.0000 0.94876  0.10338  0.99911  Biso   1.000  O
  O373     1.0000 0.10246  0.94967  0.99911  Biso   1.000  O
  O374     1.0000 0.10246  0.10338  0.84540  Biso   1.000  O
  O375     1.0000 0.10246  0.10338  0.99911  Biso   1.000  O
  O376     1.0000 0.25721  0.96625  0.15386  Biso   1.000  O
  O377     1.0000 0.77638  0.25811  0.86200  Biso   1.000  O
  O378     1.0000 0.25721  0.25811  0.67303  Biso   1.000  O
  O379     1.0000 0.96535  0.77729  0.15386  Biso   1.000  O
  O380     1.0000 0.96535  0.25811  0.15386  Biso   1.000  O
  O381     1.0000 0.25721  0.77729  0.86200  Biso   1.000  O
  O382     1.0000 0.91271  0.26772  0.70646  Biso   1.000  O
  O383     1.0000 0.26682  0.91361  0.16346  Biso   1.000  O
  O384     1.0000 0.80981  0.26772  0.80935  Biso   1.000  O
  O385     1.0000 0.26682  0.81072  0.16346  Biso   1.000  O
  O386     1.0000 0.26682  0.26772  0.80935  Biso   1.000  O
  O387     1.0000 0.80981  0.91361  0.16346  Biso   1.000  O
  O388     1.0000 0.26682  0.26772  0.70646  Biso   1.000  O
  O389     1.0000 0.91271  0.81072  0.16346  Biso   1.000  O
  O390     1.0000 0.80981  0.26772  0.16346  Biso   1.000  O
  O391     1.0000 0.26682  0.91361  0.70646  Biso   1.000  O
  O392     1.0000 0.91271  0.26772  0.16346  Biso   1.000  O
  O393     1.0000 0.26682  0.81072  0.80935  Biso   1.000  O
  O394     1.0000 0.94217  0.18681  0.83881  Biso   1.000  O
  O395     1.0000 0.89100  0.23799  0.78764  Biso   1.000  O
  O396     1.0000 0.18591  0.94307  0.08255  Biso   1.000  O
  O397     1.0000 0.23708  0.89190  0.13373  Biso   1.000  O
  O398     1.0000 0.18591  0.18681  0.83881  Biso   1.000  O
  O399     1.0000 0.23708  0.23799  0.78764  Biso   1.000  O
  O400     1.0000 0.94217  0.94307  0.08255  Biso   1.000  O
  O401     1.0000 0.89100  0.89190  0.13373  Biso   1.000  O
  O402     1.0000 0.94217  0.18681  0.08255  Biso   1.000  O
  O403     1.0000 0.89100  0.23799  0.13373  Biso   1.000  O
  O404     1.0000 0.18591  0.94307  0.83881  Biso   1.000  O
  O405     1.0000 0.23708  0.89190  0.78764  Biso   1.000  O
  O406     1.0000 0.84875  0.31427  0.67731  Biso   1.000  O
  O407     1.0000 0.31426  0.84787  0.21091  Biso   1.000  O
  O408     1.0000 0.31516  0.31427  0.74361  Biso   1.000  O
  O409     1.0000 0.78156  0.84787  0.21091  Biso   1.000  O
  O410     1.0000 0.78156  0.31427  0.21091  Biso   1.000  O
  O411     1.0000 0.31516  0.84787  0.67731  Biso   1.000  O
  O412     1.0000 0.06404  0.06494  0.96068  Biso   1.000  O
  O413     1.0000 0.90474  0.16819  0.91348  Biso   1.000  O
  O414     1.0000 0.16729  0.90564  0.06394  Biso   1.000  O
  O415     1.0000 0.01684  0.16819  0.80138  Biso   1.000  O
  O416     1.0000 0.16729  0.01774  0.06394  Biso   1.000  O
  O417     1.0000 0.16729  0.16819  0.80138  Biso   1.000  O
  O418     1.0000 0.01684  0.90564  0.06394  Biso   1.000  O
  O419     1.0000 0.16729  0.16819  0.91348  Biso   1.000  O
  O420     1.0000 0.90474  0.01774  0.06394  Biso   1.000  O
  O421     1.0000 0.01684  0.16819  0.06394  Biso   1.000  O
  O422     1.0000 0.16729  0.90564  0.91348  Biso   1.000  O
  O423     1.0000 0.90474  0.16819  0.06394  Biso   1.000  O
  O424     1.0000 0.16729  0.01774  0.80138  Biso   1.000  O
  O425     1.0000 0.67977  0.52695  0.42181  Biso   1.000  O
  O426     1.0000 0.52606  0.68066  0.42181  Biso   1.000  O
  O427     1.0000 0.52606  0.52695  0.57552  Biso   1.000  O
  O428     1.0000 0.52606  0.52695  0.42181  Biso   1.000  O
  O429     1.0000 0.37131  0.66408  0.26707  Biso   1.000  O
  O430     1.0000 0.85214  0.37222  0.55893  Biso   1.000  O
  O431     1.0000 0.37131  0.37222  0.74789  Biso   1.000  O
  O432     1.0000 0.66317  0.85305  0.26707  Biso   1.000  O
  O433     1.0000 0.66317  0.37222  0.26707  Biso   1.000  O
  O434     1.0000 0.37131  0.85305  0.55893  Biso   1.000  O
  O435     1.0000 0.71582  0.36261  0.71446  Biso   1.000  O
  O436     1.0000 0.36171  0.71672  0.25746  Biso   1.000  O
  O437     1.0000 0.81871  0.36261  0.61157  Biso   1.000  O
  O438     1.0000 0.36171  0.81962  0.25746  Biso   1.000  O
  O439     1.0000 0.36171  0.36261  0.61157  Biso   1.000  O
  O440     1.0000 0.81871  0.71672  0.25746  Biso   1.000  O
  O441     1.0000 0.36171  0.36261  0.71446  Biso   1.000  O
  O442     1.0000 0.71582  0.81962  0.25746  Biso   1.000  O
  O443     1.0000 0.81871  0.36261  0.25746  Biso   1.000  O
  O444     1.0000 0.36171  0.71672  0.71446  Biso   1.000  O
  O445     1.0000 0.71582  0.36261  0.25746  Biso   1.000  O
  O446     1.0000 0.36171  0.81962  0.61157  Biso   1.000  O
  O447     1.0000 0.68636  0.44352  0.58211  Biso   1.000  O
  O448     1.0000 0.73753  0.39234  0.63328  Biso   1.000  O
  O449     1.0000 0.44262  0.68726  0.33837  Biso   1.000  O
  O450     1.0000 0.39144  0.73843  0.28719  Biso   1.000  O
  O451     1.0000 0.44262  0.44352  0.58211  Biso   1.000  O
  O452     1.0000 0.39144  0.39234  0.63328  Biso   1.000  O
  O453     1.0000 0.68636  0.68726  0.33837  Biso   1.000  O
  O454     1.0000 0.73753  0.73843  0.28719  Biso   1.000  O
  O455     1.0000 0.68636  0.44352  0.33837  Biso   1.000  O
  O456     1.0000 0.73753  0.39234  0.28719  Biso   1.000  O
  O457     1.0000 0.44262  0.68726  0.58211  Biso   1.000  O
  O458     1.0000 0.39144  0.73843  0.63328  Biso   1.000  O
  O459     1.0000 0.78156  0.31517  0.74361  Biso   1.000  O
  O460     1.0000 0.31337  0.78246  0.21091  Biso   1.000  O
  O461     1.0000 0.31426  0.31517  0.67731  Biso   1.000  O
  O462     1.0000 0.84697  0.78246  0.21091  Biso   1.000  O
  O463     1.0000 0.84697  0.31517  0.21091  Biso   1.000  O
  O464     1.0000 0.31426  0.78246  0.74361  Biso   1.000  O
  O465     1.0000 0.56449  0.56539  0.46024  Biso   1.000  O
  O466     1.0000 0.72379  0.46214  0.50744  Biso   1.000  O
  O467     1.0000 0.46123  0.72469  0.35699  Biso   1.000  O
  O468     1.0000 0.61169  0.46214  0.61954  Biso   1.000  O
  O469     1.0000 0.46123  0.61259  0.35699  Biso   1.000  O
  O470     1.0000 0.46123  0.46214  0.61954  Biso   1.000  O
  O471     1.0000 0.61169  0.72469  0.35699  Biso   1.000  O
  O472     1.0000 0.46123  0.46214  0.50744  Biso   1.000  O
  O473     1.0000 0.72379  0.61259  0.35699  Biso   1.000  O
  O474     1.0000 0.61169  0.46214  0.35699  Biso   1.000  O
  O475     1.0000 0.46123  0.72469  0.50744  Biso   1.000  O
  O476     1.0000 0.72379  0.46214  0.35699  Biso   1.000  O
  O477     1.0000 0.46123  0.61259  0.61954  Biso   1.000  O
  O478     1.0000 0.94787  0.10427  0.99911  Biso   1.000  O
  O479     1.0000 0.10157  0.95056  0.99911  Biso   1.000  O
  O480     1.0000 0.10157  0.10427  0.84540  Biso   1.000  O
  O481     1.0000 0.10157  0.10427  0.99911  Biso   1.000  O
  O482     1.0000 0.25632  0.96715  0.15386  Biso   1.000  O
  O483     1.0000 0.77549  0.25901  0.86200  Biso   1.000  O
  O484     1.0000 0.25632  0.25901  0.67303  Biso   1.000  O
  O485     1.0000 0.96446  0.77818  0.15386  Biso   1.000  O
  O486     1.0000 0.96446  0.25901  0.15386  Biso   1.000  O
  O487     1.0000 0.25632  0.77818  0.86200  Biso   1.000  O
  O488     1.0000 0.91181  0.26862  0.70646  Biso   1.000  O
  O489     1.0000 0.26593  0.91450  0.16346  Biso   1.000  O
  O490     1.0000 0.80892  0.26862  0.80935  Biso   1.000  O
  O491     1.0000 0.26593  0.81161  0.16346  Biso   1.000  O
  O492     1.0000 0.26593  0.26862  0.80935  Biso   1.000  O
  O493     1.0000 0.80892  0.91450  0.16346  Biso   1.000  O
  O494     1.0000 0.26593  0.26862  0.70646  Biso   1.000  O
  O495     1.0000 0.91181  0.81161  0.16346  Biso   1.000  O
  O496     1.0000 0.80892  0.26862  0.16346  Biso   1.000  O
  O497     1.0000 0.26593  0.91450  0.70646  Biso   1.000  O
  O498     1.0000 0.91181  0.26862  0.16346  Biso   1.000  O
  O499     1.0000 0.26593  0.81161  0.80935  Biso   1.000  O
  O500     1.0000 0.94128  0.18770  0.83881  Biso   1.000  O
  O501     1.0000 0.89010  0.23888  0.78764  Biso   1.000  O
  O502     1.0000 0.18502  0.94397  0.08255  Biso   1.000  O
  O503     1.0000 0.23619  0.89279  0.13373  Biso   1.000  O
  O504     1.0000 0.18502  0.18770  0.83881  Biso   1.000  O
  O505     1.0000 0.23619  0.23888  0.78764  Biso   1.000  O
  O506     1.0000 0.94128  0.94397  0.08255  Biso   1.000  O
  O507     1.0000 0.89010  0.89279  0.13373  Biso   1.000  O
  O508     1.0000 0.94128  0.18770  0.08255  Biso   1.000  O
  O509     1.0000 0.89010  0.23888  0.13373  Biso   1.000  O
  O510     1.0000 0.18502  0.94397  0.83881  Biso   1.000  O
  O511     1.0000 0.23619  0.89279  0.78764  Biso   1.000  O
  O512     1.0000 0.84786  0.31517  0.67731  Biso   1.000  O
  O513     1.0000 0.31337  0.84876  0.21091  Biso   1.000  O
  O514     1.0000 0.31426  0.31517  0.74361  Biso   1.000  O
  O515     1.0000 0.78067  0.84876  0.21091  Biso   1.000  O
  O516     1.0000 0.78067  0.31517  0.21091  Biso   1.000  O
  O517     1.0000 0.31426  0.84876  0.67731  Biso   1.000  O
  O518     1.0000 0.06315  0.06583  0.96068  Biso   1.000  O
  O519     1.0000 0.90385  0.16909  0.91348  Biso   1.000  O
  O520     1.0000 0.16640  0.90653  0.06394  Biso   1.000  O
  O521     1.0000 0.01595  0.16909  0.80138  Biso   1.000  O
  O522     1.0000 0.16640  0.01863  0.06394  Biso   1.000  O
  O523     1.0000 0.16640  0.16909  0.80138  Biso   1.000  O
  O524     1.0000 0.01595  0.90653  0.06394  Biso   1.000  O
  O525     1.0000 0.16640  0.16909  0.91348  Biso   1.000  O
  O526     1.0000 0.90385  0.01863  0.06394  Biso   1.000  O
  O527     1.0000 0.01595  0.16909  0.06394  Biso   1.000  O
  O528     1.0000 0.16640  0.90653  0.91348  Biso   1.000  O
  O529     1.0000 0.90385  0.16909  0.06394  Biso   1.000  O
  O530     1.0000 0.16640  0.01863  0.80138  Biso   1.000  O
  O531     1.0000 0.67888  0.52785  0.42181  Biso   1.000  O
  O532     1.0000 0.52517  0.68155  0.42181  Biso   1.000  O
  O533     1.0000 0.52517  0.52785  0.57552  Biso   1.000  O
  O534     1.0000 0.52517  0.52785  0.42181  Biso   1.000  O
  O535     1.0000 0.37042  0.66497  0.26707  Biso   1.000  O
  O536     1.0000 0.85125  0.37311  0.55893  Biso   1.000  O
  O537     1.0000 0.37042  0.37311  0.74789  Biso   1.000  O
  O538     1.0000 0.66228  0.85394  0.26707  Biso   1.000  O
  O539     1.0000 0.66228  0.37311  0.26707  Biso   1.000  O
  O540     1.0000 0.37042  0.85394  0.55893  Biso   1.000  O
  O541     1.0000 0.71493  0.36350  0.71446  Biso   1.000  O
  O542     1.0000 0.36081  0.71762  0.25746  Biso   1.000  O
  O543     1.0000 0.81782  0.36350  0.61157  Biso   1.000  O
  O544     1.0000 0.36081  0.82051  0.25746  Biso   1.000  O
  O545     1.0000 0.36081  0.36350  0.61157  Biso   1.000  O
  O546     1.0000 0.81782  0.71762  0.25746  Biso   1.000  O
  O547     1.0000 0.36081  0.36350  0.71446  Biso   1.000  O
  O548     1.0000 0.71493  0.82051  0.25746  Biso   1.000  O
  O549     1.0000 0.81782  0.36350  0.25746  Biso   1.000  O
  O550     1.0000 0.36081  0.71762  0.71446  Biso   1.000  O
  O551     1.0000 0.71493  0.36350  0.25746  Biso   1.000  O
  O552     1.0000 0.36081  0.82051  0.61157  Biso   1.000  O
  O553     1.0000 0.68546  0.44441  0.58211  Biso   1.000  O
  O554     1.0000 0.73664  0.39324  0.63328  Biso   1.000  O
  O555     1.0000 0.44173  0.68815  0.33837  Biso   1.000  O
  O556     1.0000 0.39055  0.73933  0.28719  Biso   1.000  O
  O557     1.0000 0.44173  0.44441  0.58211  Biso   1.000  O
  O558     1.0000 0.39055  0.39324  0.63328  Biso   1.000  O
  O559     1.0000 0.68546  0.68815  0.33837  Biso   1.000  O
  O560     1.0000 0.73664  0.73933  0.28719  Biso   1.000  O
  O561     1.0000 0.68546  0.44441  0.33837  Biso   1.000  O
  O562     1.0000 0.73664  0.39324  0.28719  Biso   1.000  O
  O563     1.0000 0.44173  0.68815  0.58211  Biso   1.000  O
  O564     1.0000 0.39055  0.73933  0.63328  Biso   1.000  O
  O565     1.0000 0.78067  0.31606  0.74361  Biso   1.000  O
  O566     1.0000 0.31248  0.78335  0.21091  Biso   1.000  O
  O567     1.0000 0.31337  0.31606  0.67731  Biso   1.000  O
  O568     1.0000 0.84607  0.78335  0.21091  Biso   1.000  O
  O569     1.0000 0.84607  0.31606  0.21091  Biso   1.000  O
  O570     1.0000 0.31337  0.78335  0.74361  Biso   1.000  O
  O571     1.0000 0.56359  0.56628  0.46024  Biso   1.000  O
  O572     1.0000 0.72290  0.46303  0.50744  Biso   1.000  O
  O573     1.0000 0.46034  0.72558  0.35699  Biso   1.000  O
  O574     1.0000 0.61080  0.46303  0.61954  Biso   1.000  O
  O575     1.0000 0.46034  0.61348  0.35699  Biso   1.000  O
  O576     1.0000 0.46034  0.46303  0.61954  Biso   1.000  O
  O577     1.0000 0.61080  0.72558  0.35699  Biso   1.000  O
  O578     1.0000 0.46034  0.46303  0.50744  Biso   1.000  O
  O579     1.0000 0.72290  0.61348  0.35699  Biso   1.000  O
  O580     1.0000 0.61080  0.46303  0.35699  Biso   1.000  O
  O581     1.0000 0.46034  0.72558  0.50744  Biso   1.000  O
  O582     1.0000 0.72290  0.46303  0.35699  Biso   1.000  O
  O583     1.0000 0.46034  0.61348  0.61954  Biso   1.000  O
  O584     1.0000 0.94697  0.10516  0.99911  Biso   1.000  O
  O585     1.0000 0.10068  0.95145  0.99911  Biso   1.000  O
  O586     1.0000 0.10068  0.10516  0.84540  Biso   1.000  O
  O587     1.0000 0.10068  0.10516  0.99911  Biso   1.000  O
  O588     1.0000 0.25543  0.96804  0.15386  Biso   1.000  O
  O589     1.0000 0.77460  0.25990  0.86200  Biso   1.000  O
  O590     1.0000 0.25543  0.25990  0.67303  Biso   1.000  O
  O591     1.0000 0.96357  0.77907  0.15386  Biso   1.000  O
  O592     1.0000 0.96357  0.25990  0.15386  Biso   1.000  O
  O593     1.0000 0.25543  0.77907  0.86200  Biso   1.000  O
  O594     1.0000 0.91092  0.26951  0.70646  Biso   1.000  O
  O595     1.0000 0.26504  0.91539  0.16346  Biso   1.000  O
  O596     1.0000 0.80803  0.26951  0.80935  Biso   1.000  O
  O597     1.0000 0.26504  0.81250  0.16346  Biso   1.000  O
  O598     1.0000 0.26504  0.26951  0.80935  Biso   1.000  O
  O599     1.0000 0.80803  0.91539  0.16346  Biso   1.000  O
  O600     1.0000 0.26504  0.26951  0.70646  Biso   1.000  O
  O601     1.0000 0.91092  0.81250  0.16346  Biso   1.000  O
  O602     1.0000 0.80803  0.26951  0.16346  Biso   1.000  O
  O603     1.0000 0.26504  0.91539  0.70646  Biso   1.000  O
  O604     1.0000 0.91092  0.26951  0.16346  Biso   1.000  O
  O605     1.0000 0.26504  0.81250  0.80935  Biso   1.000  O
  O606     1.0000 0.94039  0.18860  0.83881  Biso   1.000  O
  O607     1.0000 0.88921  0.23977  0.78764  Biso   1.000  O
  O608     1.0000 0.18412  0.94486  0.08255  Biso   1.000  O
  O609     1.0000 0.23530  0.89368  0.13373  Biso   1.000  O
  O610     1.0000 0.18412  0.18860  0.83881  Biso   1.000  O
  O611     1.0000 0.23530  0.23977  0.78764  Biso   1.000  O
  O612     1.0000 0.94039  0.94486  0.08255  Biso   1.000  O
  O613     1.0000 0.88921  0.89368  0.13373  Biso   1.000  O
  O614     1.0000 0.94039  0.18860  0.08255  Biso   1.000  O
  O615     1.0000 0.88921  0.23977  0.13373  Biso   1.000  O
  O616     1.0000 0.18412  0.94486  0.83881  Biso   1.000  O
  O617     1.0000 0.23530  0.89368  0.78764  Biso   1.000  O
  O618     1.0000 0.84697  0.31606  0.67731  Biso   1.000  O
  O619     1.0000 0.31248  0.84965  0.21091  Biso   1.000  O
  O620     1.0000 0.31337  0.31606  0.74361  Biso   1.000  O
  O621     1.0000 0.77978  0.84965  0.21091  Biso   1.000  O
  O622     1.0000 0.77978  0.31606  0.21091  Biso   1.000  O
  O623     1.0000 0.31337  0.84965  0.67731  Biso   1.000  O
  O624     1.0000 0.06226  0.06673  0.96068  Biso   1.000  O
  O625     1.0000 0.90295  0.16998  0.91348  Biso   1.000  O
  O626     1.0000 0.16551  0.90743  0.06394  Biso   1.000  O
  O627     1.0000 0.01505  0.16998  0.80138  Biso   1.000  O
  O628     1.0000 0.16551  0.01953  0.06394  Biso   1.000  O
  O629     1.0000 0.16551  0.16998  0.80138  Biso   1.000  O
  O630     1.0000 0.01505  0.90743  0.06394  Biso   1.000  O
  O631     1.0000 0.16551  0.16998  0.91348  Biso   1.000  O
  O632     1.0000 0.90295  0.01953  0.06394  Biso   1.000  O
  O633     1.0000 0.01505  0.16998  0.06394  Biso   1.000  O
  O634     1.0000 0.16551  0.90743  0.91348  Biso   1.000  O
  O635     1.0000 0.90295  0.16998  0.06394  Biso   1.000  O
  O636     1.0000 0.16551  0.01953  0.80138  Biso   1.000  O
  O637     1.0000 0.67977  0.52606  0.42181  Biso   1.000  O
  O638     1.0000 0.52606  0.67977  0.42181  Biso   1.000  O
  O639     1.0000 0.52606  0.52606  0.57552  Biso   1.000  O
  O640     1.0000 0.52606  0.52606  0.42181  Biso   1.000  O
  O641     1.0000 0.37131  0.66318  0.26707  Biso   1.000  O
  O642     1.0000 0.85214  0.37132  0.55893  Biso   1.000  O
  O643     1.0000 0.37131  0.37132  0.74789  Biso   1.000  O
  O644     1.0000 0.66317  0.85215  0.26707  Biso   1.000  O
  O645     1.0000 0.66317  0.37132  0.26707  Biso   1.000  O
  O646     1.0000 0.37131  0.85215  0.55893  Biso   1.000  O
  O647     1.0000 0.71582  0.36172  0.71446  Biso   1.000  O
  O648     1.0000 0.36171  0.71583  0.25746  Biso   1.000  O
  O649     1.0000 0.81871  0.36172  0.61157  Biso   1.000  O
  O650     1.0000 0.36171  0.81872  0.25746  Biso   1.000  O
  O651     1.0000 0.36171  0.36172  0.61157  Biso   1.000  O
  O652     1.0000 0.81871  0.71583  0.25746  Biso   1.000  O
  O653     1.0000 0.36171  0.36172  0.71446  Biso   1.000  O
  O654     1.0000 0.71582  0.81872  0.25746  Biso   1.000  O
  O655     1.0000 0.81871  0.36172  0.25746  Biso   1.000  O
  O656     1.0000 0.36171  0.71583  0.71446  Biso   1.000  O
  O657     1.0000 0.71582  0.36172  0.25746  Biso   1.000  O
  O658     1.0000 0.36171  0.81872  0.61157  Biso   1.000  O
  O659     1.0000 0.68636  0.44263  0.58211  Biso   1.000  O
  O660     1.0000 0.73753  0.39145  0.63328  Biso   1.000  O
  O661     1.0000 0.44262  0.68637  0.33837  Biso   1.000  O
  O662     1.0000 0.39144  0.73754  0.28719  Biso   1.000  O
  O663     1.0000 0.44262  0.44263  0.58211  Biso   1.000  O
  O664     1.0000 0.39144  0.39145  0.63328  Biso   1.000  O
  O665     1.0000 0.68636  0.68637  0.33837  Biso   1.000  O
  O666     1.0000 0.73753  0.73754  0.28719  Biso   1.000  O
  O667     1.0000 0.68636  0.44263  0.33837  Biso   1.000  O
  O668     1.0000 0.73753  0.39145  0.28719  Biso   1.000  O
  O669     1.0000 0.44262  0.68637  0.58211  Biso   1.000  O
  O670     1.0000 0.39144  0.73754  0.63328  Biso   1.000  O
  O671     1.0000 0.78156  0.31427  0.74361  Biso   1.000  O
  O672     1.0000 0.31337  0.78157  0.21091  Biso   1.000  O
  O673     1.0000 0.31426  0.31427  0.67731  Biso   1.000  O
  O674     1.0000 0.84697  0.78157  0.21091  Biso   1.000  O
  O675     1.0000 0.84697  0.31427  0.21091  Biso   1.000  O
  O676     1.0000 0.31426  0.78157  0.74361  Biso   1.000  O
  O677     1.0000 0.56449  0.56450  0.46024  Biso   1.000  O
  O678     1.0000 0.72379  0.46124  0.50744  Biso   1.000  O
  O679     1.0000 0.46123  0.72380  0.35699  Biso   1.000  O
  O680     1.0000 0.61169  0.46124  0.61954  Biso   1.000  O
  O681     1.0000 0.46123  0.61170  0.35699  Biso   1.000  O
  O682     1.0000 0.46123  0.46124  0.61954  Biso   1.000  O
  O683     1.0000 0.61169  0.72380  0.35699  Biso   1.000  O
  O684     1.0000 0.46123  0.46124  0.50744  Biso   1.000  O
  O685     1.0000 0.72379  0.61170  0.35699  Biso   1.000  O
  O686     1.0000 0.61169  0.46124  0.35699  Biso   1.000  O
  O687     1.0000 0.46123  0.72380  0.50744  Biso   1.000  O
  O688     1.0000 0.72379  0.46124  0.35699  Biso   1.000  O
  O689     1.0000 0.46123  0.61170  0.61954  Biso   1.000  O
  O690     1.0000 0.94787  0.10338  0.99911  Biso   1.000  O
  O691     1.0000 0.10157  0.94967  0.99911  Biso   1.000  O
  O692     1.0000 0.10157  0.10338  0.84540  Biso   1.000  O
  O693     1.0000 0.10157  0.10338  0.99911  Biso   1.000  O
  O694     1.0000 0.25632  0.96625  0.15386  Biso   1.000  O
  O695     1.0000 0.77549  0.25811  0.86200  Biso   1.000  O
  O696     1.0000 0.25632  0.25811  0.67303  Biso   1.000  O
  O697     1.0000 0.96446  0.77729  0.15386  Biso   1.000  O
  O698     1.0000 0.96446  0.25811  0.15386  Biso   1.000  O
  O699     1.0000 0.25632  0.77729  0.86200  Biso   1.000  O
  O700     1.0000 0.91181  0.26772  0.70646  Biso   1.000  O
  O701     1.0000 0.26593  0.91361  0.16346  Biso   1.000  O
  O702     1.0000 0.80892  0.26772  0.80935  Biso   1.000  O
  O703     1.0000 0.26593  0.81072  0.16346  Biso   1.000  O
  O704     1.0000 0.26593  0.26772  0.80935  Biso   1.000  O
  O705     1.0000 0.80892  0.91361  0.16346  Biso   1.000  O
  O706     1.0000 0.26593  0.26772  0.70646  Biso   1.000  O
  O707     1.0000 0.91181  0.81072  0.16346  Biso   1.000  O
  O708     1.0000 0.80892  0.26772  0.16346  Biso   1.000  O
  O709     1.0000 0.26593  0.91361  0.70646  Biso   1.000  O
  O710     1.0000 0.91181  0.26772  0.16346  Biso   1.000  O
  O711     1.0000 0.26593  0.81072  0.80935  Biso   1.000  O
  O712     1.0000 0.94128  0.18681  0.83881  Biso   1.000  O
  O713     1.0000 0.89010  0.23799  0.78764  Biso   1.000  O
  O714     1.0000 0.18502  0.94307  0.08255  Biso   1.000  O
  O715     1.0000 0.23619  0.89190  0.13373  Biso   1.000  O
  O716     1.0000 0.18502  0.18681  0.83881  Biso   1.000  O
  O717     1.0000 0.23619  0.23799  0.78764  Biso   1.000  O
  O718     1.0000 0.94128  0.94307  0.08255  Biso   1.000  O
  O719     1.0000 0.89010  0.89190  0.13373  Biso   1.000  O
  O720     1.0000 0.94128  0.18681  0.08255  Biso   1.000  O
  O721     1.0000 0.89010  0.23799  0.13373  Biso   1.000  O
  O722     1.0000 0.18502  0.94307  0.83881  Biso   1.000  O
  O723     1.0000 0.23619  0.89190  0.78764  Biso   1.000  O
  O724     1.0000 0.84786  0.31427  0.67731  Biso   1.000  O
  O725     1.0000 0.31337  0.84787  0.21091  Biso   1.000  O
  O726     1.0000 0.31426  0.31427  0.74361  Biso   1.000  O
  O727     1.0000 0.78067  0.84787  0.21091  Biso   1.000  O
  O728     1.0000 0.78067  0.31427  0.21091  Biso   1.000  O
  O729     1.0000 0.31426  0.84787  0.67731  Biso   1.000  O
  O730     1.0000 0.06315  0.06494  0.96068  Biso   1.000  O
  O731     1.0000 0.90385  0.16819  0.91348  Biso   1.000  O
  O732     1.0000 0.16640  0.90564  0.06394  Biso   1.000  O
  O733     1.0000 0.01595  0.16819  0.80138  Biso   1.000  O
  O734     1.0000 0.16640  0.01774  0.06394  Biso   1.000  O
  O735     1.0000 0.16640  0.16819  0.80138  Biso   1.000  O
  O736     1.0000 0.01595  0.90564  0.06394  Biso   1.000  O
  O737     1.0000 0.16640  0.16819  0.91348  Biso   1.000  O
  O738     1.0000 0.90385  0.01774  0.06394  Biso   1.000  O
  O739     1.0000 0.01595  0.16819  0.06394  Biso   1.000  O
  O740     1.0000 0.16640  0.90564  0.91348  Biso   1.000  O
  O741     1.0000 0.90385  0.16819  0.06394  Biso   1.000  O
  O742     1.0000 0.16640  0.01774  0.80138  Biso   1.000  O
  O743     1.0000 0.67888  0.52695  0.42181  Biso   1.000  O
  O744     1.0000 0.52517  0.68066  0.42181  Biso   1.000  O
  O745     1.0000 0.52517  0.52695  0.57552  Biso   1.000  O
  O746     1.0000 0.52517  0.52695  0.42181  Biso   1.000  O
  O747     1.0000 0.37042  0.66408  0.26706  Biso   1.000  O
  O748     1.0000 0.85125  0.37222  0.55893  Biso   1.000  O
  O749     1.0000 0.37042  0.37222  0.74789  Biso   1.000  O
  O750     1.0000 0.66228  0.85305  0.26707  Biso   1.000  O
  O751     1.0000 0.66228  0.37222  0.26706  Biso   1.000  O
  O752     1.0000 0.37042  0.85305  0.55893  Biso   1.000  O
  O753     1.0000 0.71493  0.36261  0.71446  Biso   1.000  O
  O754     1.0000 0.36081  0.71672  0.25746  Biso   1.000  O
  O755     1.0000 0.81782  0.36261  0.61157  Biso   1.000  O
  O756     1.0000 0.36081  0.81962  0.25746  Biso   1.000  O
  O757     1.0000 0.36081  0.36261  0.61157  Biso   1.000  O
  O758     1.0000 0.81782  0.71672  0.25746  Biso   1.000  O
  O759     1.0000 0.36081  0.36261  0.71446  Biso   1.000  O
  O760     1.0000 0.71493  0.81962  0.25746  Biso   1.000  O
  O761     1.0000 0.81782  0.36261  0.25746  Biso   1.000  O
  O762     1.0000 0.36081  0.71672  0.71446  Biso   1.000  O
  O763     1.0000 0.71493  0.36261  0.25746  Biso   1.000  O
  O764     1.0000 0.36081  0.81962  0.61157  Biso   1.000  O
  O765     1.0000 0.68546  0.44352  0.58211  Biso   1.000  O
  O766     1.0000 0.73664  0.39234  0.63328  Biso   1.000  O
  O767     1.0000 0.44173  0.68726  0.33837  Biso   1.000  O
  O768     1.0000 0.39055  0.73843  0.28719  Biso   1.000  O
  O769     1.0000 0.44173  0.44352  0.58211  Biso   1.000  O
  O770     1.0000 0.39055  0.39234  0.63328  Biso   1.000  O
  O771     1.0000 0.68546  0.68726  0.33837  Biso   1.000  O
  O772     1.0000 0.73664  0.73843  0.28719  Biso   1.000  O
  O773     1.0000 0.68546  0.44352  0.33837  Biso   1.000  O
  O774     1.0000 0.73664  0.39234  0.28719  Biso   1.000  O
  O775     1.0000 0.44173  0.68726  0.58211  Biso   1.000  O
  O776     1.0000 0.39055  0.73843  0.63328  Biso   1.000  O
  O777     1.0000 0.78067  0.31517  0.74361  Biso   1.000  O
  O778     1.0000 0.31248  0.78246  0.21091  Biso   1.000  O
  O779     1.0000 0.31337  0.31517  0.67731  Biso   1.000  O
  O780     1.0000 0.84607  0.78246  0.21091  Biso   1.000  O
  O781     1.0000 0.84607  0.31517  0.21091  Biso   1.000  O
  O782     1.0000 0.31337  0.78246  0.74361  Biso   1.000  O
  O783     1.0000 0.56359  0.56539  0.46024  Biso   1.000  O
  O784     1.0000 0.72290  0.46214  0.50744  Biso   1.000  O
  O785     1.0000 0.46034  0.72469  0.35699  Biso   1.000  O
  O786     1.0000 0.61080  0.46214  0.61954  Biso   1.000  O
  O787     1.0000 0.46034  0.61259  0.35699  Biso   1.000  O
  O788     1.0000 0.46034  0.46214  0.61954  Biso   1.000  O
  O789     1.0000 0.61080  0.72469  0.35699  Biso   1.000  O
  O790     1.0000 0.46034  0.46214  0.50744  Biso   1.000  O
  O791     1.0000 0.72290  0.61259  0.35699  Biso   1.000  O
  O792     1.0000 0.61080  0.46214  0.35699  Biso   1.000  O
  O793     1.0000 0.46034  0.72469  0.50744  Biso   1.000  O
  O794     1.0000 0.72290  0.46214  0.35699  Biso   1.000  O
  O795     1.0000 0.46034  0.61259  0.61954  Biso   1.000  O
  O796     1.0000 0.94697  0.10427  0.99911  Biso   1.000  O
  O797     1.0000 0.10068  0.95056  0.99911  Biso   1.000  O
  O798     1.0000 0.10068  0.10427  0.84540  Biso   1.000  O
  O799     1.0000 0.10068  0.10427  0.99911  Biso   1.000  O
  O800     1.0000 0.25543  0.96715  0.15386  Biso   1.000  O
  O801     1.0000 0.77460  0.25901  0.86200  Biso   1.000  O
  O802     1.0000 0.25543  0.25901  0.67303  Biso   1.000  O
  O803     1.0000 0.96357  0.77818  0.15386  Biso   1.000  O
  O804     1.0000 0.96357  0.25901  0.15386  Biso   1.000  O
  O805     1.0000 0.25543  0.77818  0.86200  Biso   1.000  O
  O806     1.0000 0.91092  0.26862  0.70646  Biso   1.000  O
  O807     1.0000 0.26504  0.91450  0.16346  Biso   1.000  O
  O808     1.0000 0.80803  0.26862  0.80935  Biso   1.000  O
  O809     1.0000 0.26504  0.81161  0.16346  Biso   1.000  O
  O810     1.0000 0.26504  0.26862  0.80935  Biso   1.000  O
  O811     1.0000 0.80803  0.91450  0.16346  Biso   1.000  O
  O812     1.0000 0.26504  0.26862  0.70646  Biso   1.000  O
  O813     1.0000 0.91092  0.81161  0.16346  Biso   1.000  O
  O814     1.0000 0.80803  0.26862  0.16346  Biso   1.000  O
  O815     1.0000 0.26504  0.91450  0.70646  Biso   1.000  O
  O816     1.0000 0.91092  0.26862  0.16346  Biso   1.000  O
  O817     1.0000 0.26504  0.81161  0.80935  Biso   1.000  O
  O818     1.0000 0.94039  0.18770  0.83881  Biso   1.000  O
  O819     1.0000 0.88921  0.23888  0.78764  Biso   1.000  O
  O820     1.0000 0.18412  0.94397  0.08255  Biso   1.000  O
  O821     1.0000 0.23530  0.89279  0.13373  Biso   1.000  O
  O822     1.0000 0.18412  0.18770  0.83881  Biso   1.000  O
  O823     1.0000 0.23530  0.23888  0.78764  Biso   1.000  O
  O824     1.0000 0.94039  0.94397  0.08255  Biso   1.000  O
  O825     1.0000 0.88921  0.89279  0.13373  Biso   1.000  O
  O826     1.0000 0.94039  0.18770  0.08255  Biso   1.000  O
  O827     1.0000 0.88921  0.23888  0.13373  Biso   1.000  O
  O828     1.0000 0.18412  0.94397  0.83881  Biso   1.000  O
  O829     1.0000 0.23530  0.89279  0.78764  Biso   1.000  O
  O830     1.0000 0.84697  0.31517  0.67731  Biso   1.000  O
  O831     1.0000 0.31248  0.84876  0.21091  Biso   1.000  O
  O832     1.0000 0.31337  0.31517  0.74361  Biso   1.000  O
  O833     1.0000 0.77978  0.84876  0.21091  Biso   1.000  O
  O834     1.0000 0.77978  0.31517  0.21091  Biso   1.000  O
  O835     1.0000 0.31337  0.84876  0.67731  Biso   1.000  O
  O836     1.0000 0.06226  0.06583  0.96068  Biso   1.000  O
  O837     1.0000 0.90295  0.16909  0.91348  Biso   1.000  O
  O838     1.0000 0.16551  0.90653  0.06394  Biso   1.000  O
  O839     1.0000 0.01505  0.16909  0.80138  Biso   1.000  O
  O840     1.0000 0.16551  0.01863  0.06394  Biso   1.000  O
  O841     1.0000 0.16551  0.16909  0.80138  Biso   1.000  O
  O842     1.0000 0.01505  0.90653  0.06394  Biso   1.000  O
  O843     1.0000 0.16551  0.16909  0.91348  Biso   1.000  O
  O844     1.0000 0.90295  0.01863  0.06394  Biso   1.000  O
  O845     1.0000 0.01505  0.16909  0.06394  Biso   1.000  O
  O846     1.0000 0.16551  0.90653  0.91348  Biso   1.000  O
  O847     1.0000 0.90295  0.16909  0.06394  Biso   1.000  O
  O848     1.0000 0.16551  0.01863  0.80138  Biso   1.000  O
  O849     1.0000 0.67798  0.52785  0.42181  Biso   1.000  O
  O850     1.0000 0.52428  0.68155  0.42181  Biso   1.000  O
  O851     1.0000 0.52428  0.52785  0.57552  Biso   1.000  O
  O852     1.0000 0.52428  0.52785  0.42181  Biso   1.000  O
  O853     1.0000 0.36953  0.66497  0.26706  Biso   1.000  O
  O854     1.0000 0.85036  0.37311  0.55893  Biso   1.000  O
  O855     1.0000 0.36953  0.37311  0.74789  Biso   1.000  O
  O856     1.0000 0.66139  0.85394  0.26706  Biso   1.000  O
  O857     1.0000 0.66139  0.37311  0.26706  Biso   1.000  O
  O858     1.0000 0.36953  0.85394  0.55893  Biso   1.000  O
  O859     1.0000 0.71404  0.36350  0.71446  Biso   1.000  O
  O860     1.0000 0.35992  0.71762  0.25746  Biso   1.000  O
  O861     1.0000 0.81693  0.36350  0.61157  Biso   1.000  O
  O862     1.0000 0.35992  0.82051  0.25746  Biso   1.000  O
  O863     1.0000 0.35992  0.36350  0.61157  Biso   1.000  O
  O864     1.0000 0.81693  0.71762  0.25746  Biso   1.000  O
  O865     1.0000 0.35992  0.36350  0.71446  Biso   1.000  O
  O866     1.0000 0.71404  0.82051  0.25746  Biso   1.000  O
  O867     1.0000 0.81693  0.36350  0.25746  Biso   1.000  O
  O868     1.0000 0.35992  0.71762  0.71446  Biso   1.000  O
  O869     1.0000 0.71404  0.36350  0.25746  Biso   1.000  O
  O870     1.0000 0.35992  0.82051  0.61157  Biso   1.000  O
  O871     1.0000 0.68457  0.44441  0.58211  Biso   1.000  O
  O872     1.0000 0.73575  0.39324  0.63328  Biso   1.000  O
  O873     1.0000 0.44083  0.68815  0.33837  Biso   1.000  O
  O874     1.0000 0.38966  0.73933  0.28719  Biso   1.000  O
  O875     1.0000 0.44083  0.44441  0.58211  Biso   1.000  O
  O876     1.0000 0.38966  0.39324  0.63328  Biso   1.000  O
  O877     1.0000 0.68457  0.68815  0.33837  Biso   1.000  O
  O878     1.0000 0.73575  0.73933  0.28719  Biso   1.000  O
  O879     1.0000 0.68457  0.44441  0.33837  Biso   1.000  O
  O880     1.0000 0.73575  0.39324  0.28719  Biso   1.000  O
  O881     1.0000 0.44083  0.68815  0.58211  Biso   1.000  O
  O882     1.0000 0.38966  0.73933  0.63328  Biso   1.000  O
  O883     1.0000 0.77978  0.31606  0.74361  Biso   1.000  O
  O884     1.0000 0.31159  0.78335  0.21091  Biso   1.000  O
  O885     1.0000 0.31248  0.31606  0.67731  Biso   1.000  O
  O886     1.0000 0.84518  0.78335  0.21091  Biso   1.000  O
  O887     1.0000 0.84518  0.31606  0.21091  Biso   1.000  O
  O888     1.0000 0.31248  0.78335  0.74361  Biso   1.000  O
  O889     1.0000 0.56270  0.56628  0.46024  Biso   1.000  O
  O890     1.0000 0.72200  0.46303  0.50744  Biso   1.000  O
  O891     1.0000 0.45945  0.72558  0.35699  Biso   1.000  O
  O892     1.0000 0.60990  0.46303  0.61954  Biso   1.000  O
  O893     1.0000 0.45945  0.61348  0.35699  Biso   1.000  O
  O894     1.0000 0.45945  0.46303  0.61954  Biso   1.000  O
  O895     1.0000 0.60990  0.72558  0.35699  Biso   1.000  O
  O896     1.0000 0.45945  0.46303  0.50744  Biso   1.000  O
  O897     1.0000 0.72200  0.61348  0.35699  Biso   1.000  O
  O898     1.0000 0.60990  0.46303  0.35699  Biso   1.000  O
  O899     1.0000 0.45945  0.72558  0.50744  Biso   1.000  O
  O900     1.0000 0.72200  0.46303  0.35699  Biso   1.000  O
  O901     1.0000 0.45945  0.61348  0.61954  Biso   1.000  O
  O902     1.0000 0.94608  0.10516  0.99911  Biso   1.000  O
  O903     1.0000 0.09979  0.95145  0.99911  Biso   1.000  O
  O904     1.0000 0.09979  0.10516  0.84540  Biso   1.000  O
  O905     1.0000 0.09979  0.10516  0.99911  Biso   1.000  O
  O906     1.0000 0.25454  0.96804  0.15386  Biso   1.000  O
  O907     1.0000 0.77371  0.25990  0.86200  Biso   1.000  O
  O908     1.0000 0.25454  0.25990  0.67303  Biso   1.000  O
  O909     1.0000 0.96268  0.77907  0.15386  Biso   1.000  O
  O910     1.0000 0.96268  0.25990  0.15386  Biso   1.000  O
  O911     1.0000 0.25454  0.77907  0.86200  Biso   1.000  O
  O912     1.0000 0.91003  0.26951  0.70646  Biso   1.000  O
  O913     1.0000 0.26414  0.91539  0.16346  Biso   1.000  O
  O914     1.0000 0.80714  0.26951  0.80935  Biso   1.000  O
  O915     1.0000 0.26414  0.81250  0.16346  Biso   1.000  O
  O916     1.0000 0.26414  0.26951  0.80935  Biso   1.000  O
  O917     1.0000 0.80714  0.91539  0.16346  Biso   1.000  O
  O918     1.0000 0.26414  0.26951  0.70646  Biso   1.000  O
  O919     1.0000 0.91003  0.81250  0.16346  Biso   1.000  O
  O920     1.0000 0.80714  0.26951  0.16346  Biso   1.000  O
  O921     1.0000 0.26414  0.91539  0.70646  Biso   1.000  O
  O922     1.0000 0.91003  0.26951  0.16346  Biso   1.000  O
  O923     1.0000 0.26414  0.81250  0.80935  Biso   1.000  O
  O924     1.0000 0.93950  0.18860  0.83881  Biso   1.000  O
  O925     1.0000 0.88832  0.23977  0.78764  Biso   1.000  O
  O926     1.0000 0.18323  0.94486  0.08255  Biso   1.000  O
  O927     1.0000 0.23441  0.89368  0.13373  Biso   1.000  O
  O928     1.0000 0.18323  0.18860  0.83881  Biso   1.000  O
  O929     1.0000 0.23441  0.23977  0.78764  Biso   1.000  O
  O930     1.0000 0.93950  0.94486  0.08255  Biso   1.000  O
  O931     1.0000 0.88832  0.89368  0.13373  Biso   1.000  O
  O932     1.0000 0.93950  0.18860  0.08255  Biso   1.000  O
  O933     1.0000 0.88832  0.23977  0.13373  Biso   1.000  O
  O934     1.0000 0.18323  0.94486  0.83881  Biso   1.000  O
  O935     1.0000 0.23441  0.89368  0.78764  Biso   1.000  O
  O936     1.0000 0.84607  0.31606  0.67731  Biso   1.000  O
  O937     1.0000 0.31159  0.84965  0.21091  Biso   1.000  O
  O938     1.0000 0.31248  0.31606  0.74361  Biso   1.000  O
  O939     1.0000 0.77888  0.84965  0.21091  Biso   1.000  O
  O940     1.0000 0.77888  0.31606  0.21091  Biso   1.000  O
  O941     1.0000 0.31248  0.84965  0.67731  Biso   1.000  O
  O942     1.0000 0.06136  0.06673  0.96068  Biso   1.000  O
  O943     1.0000 0.90206  0.16998  0.91348  Biso   1.000  O
  O944     1.0000 0.16462  0.90743  0.06394  Biso   1.000  O
  O945     1.0000 0.01416  0.16998  0.80138  Biso   1.000  O
  O946     1.0000 0.16462  0.01953  0.06394  Biso   1.000  O
  O947     1.0000 0.16462  0.16998  0.80138  Biso   1.000  O
  O948     1.0000 0.01416  0.90743  0.06394  Biso   1.000  O
  O949     1.0000 0.16462  0.16998  0.91348  Biso   1.000  O
  O950     1.0000 0.90206  0.01953  0.06394  Biso   1.000  O
  O951     1.0000 0.01416  0.16998  0.06394  Biso   1.000  O
  O952     1.0000 0.16462  0.90743  0.91348  Biso   1.000  O
  O953     1.0000 0.90206  0.16998  0.06394  Biso   1.000  O
  O954     1.0000 0.16462  0.01953  0.80138  Biso   1.000  O
