data_image0
_cell_length_a       25.3468
_cell_length_b       25.3468
_cell_length_c       25.3468
_cell_angle_alpha    90
_cell_angle_beta     90
_cell_angle_gamma    90

_symmetry_space_group_name_H-M    "P 1"
_symmetry_int_tables_number       1

loop_
  _symmetry_equiv_pos_as_xyz
  'x, y, z'

loop_
  _atom_site_label
  _atom_site_occupancy
  _atom_site_fract_x
  _atom_site_fract_y
  _atom_site_fract_z
  _atom_site_thermal_displace_type
  _atom_site_B_iso_or_equiv
  _atom_site_type_symbol
  C1       1.0000 0.33623  0.00078  0.52644  Biso   1.000  C
  C2       1.0000 0.33414  0.99866  0.47520  Biso   1.000  C
  C3       1.0000 0.38867  0.99912  0.45726  Biso   1.000  C
  C4       1.0000 0.42418  0.00057  0.50147  Biso   1.000  C
  C5       1.0000 0.39197  0.00138  0.54195  Biso   1.000  C
  C6       1.0000 0.40240  0.99862  0.40680  Biso   1.000  C
  C7       1.0000 0.45803  0.99976  0.39189  Biso   1.000  C
  C8       1.0000 0.47350  0.00120  0.33616  Biso   1.000  C
  C9       1.0000 0.52477  0.00247  0.33405  Biso   1.000  C
  C10      1.0000 0.54270  0.00253  0.38858  Biso   1.000  C
  C11      1.0000 0.49851  0.00073  0.42410  Biso   1.000  C
  C12      1.0000 0.59317  0.00258  0.40230  Biso   1.000  C
  C13      1.0000 0.60807  0.00119  0.45794  Biso   1.000  C
  C14      1.0000 0.66381  0.00057  0.47346  Biso   1.000  C
  C15      1.0000 0.66589  0.99854  0.52470  Biso   1.000  C
  C16      1.0000 0.61136  0.99906  0.54264  Biso   1.000  C
  C17      1.0000 0.57585  0.00047  0.49843  Biso   1.000  C
  C18      1.0000 0.59763  0.99864  0.59310  Biso   1.000  C
  C19      1.0000 0.54200  0.99981  0.60800  Biso   1.000  C
  C20      1.0000 0.52654  0.00131  0.66374  Biso   1.000  C
  C21      1.0000 0.47527  0.00263  0.66584  Biso   1.000  C
  C22      1.0000 0.45733  0.00268  0.61131  Biso   1.000  C
  C23      1.0000 0.50153  0.00080  0.57579  Biso   1.000  C
  C24      1.0000 0.40687  0.00281  0.59759  Biso   1.000  C
  C25      1.0000 0.30197  0.00182  0.55186  Biso   1.000  C
  C26      1.0000 0.29830  0.99724  0.45204  Biso   1.000  C
  C27      1.0000 0.44801  0.00137  0.30193  Biso   1.000  C
  C28      1.0000 0.54794  0.00321  0.29820  Biso   1.000  C
  C29      1.0000 0.69807  0.00154  0.44803  Biso   1.000  C
  C30      1.0000 0.70173  0.99713  0.54787  Biso   1.000  C
  C31      1.0000 0.45210  0.00342  0.70170  Biso   1.000  C
  C32      1.0000 0.55203  0.00146  0.69796  Biso   1.000  C
  C33      1.0000 0.50002  0.00064  0.49995  Biso   1.000  C
  C34      1.0000 0.47395  0.33649  0.99048  Biso   1.000  C
  C35      1.0000 0.52525  0.33448  0.99088  Biso   1.000  C
  C36      1.0000 0.54300  0.38884  0.99591  Biso   1.000  C
  C37      1.0000 0.49870  0.42420  0.99770  Biso   1.000  C
  C38      1.0000 0.45830  0.39196  0.99553  Biso   1.000  C
  C39      1.0000 0.59338  0.40256  0.99853  Biso   1.000  C
  C40      1.0000 0.60818  0.45822  0.00020  Biso   1.000  C
  C41      1.0000 0.66387  0.47388  0.00111  Biso   1.000  C
  C42      1.0000 0.66585  0.52517  0.00034  Biso   1.000  C
  C43      1.0000 0.61128  0.54296  0.00021  Biso   1.000  C
  C44      1.0000 0.57588  0.49864  0.99991  Biso   1.000  C
  C45      1.0000 0.59739  0.59337  0.99994  Biso   1.000  C
  C46      1.0000 0.54172  0.60812  0.00088  Biso   1.000  C
  C47      1.0000 0.52607  0.66382  0.00163  Biso   1.000  C
  C48      1.0000 0.47478  0.66577  0.00234  Biso   1.000  C
  C49      1.0000 0.45702  0.61118  0.00308  Biso   1.000  C
  C50      1.0000 0.50134  0.57579  0.00196  Biso   1.000  C
  C51      1.0000 0.40662  0.59727  0.00411  Biso   1.000  C
  C52      1.0000 0.39195  0.54157  0.00424  Biso   1.000  C
  C53      1.0000 0.33644  0.52581  0.00852  Biso   1.000  C
  C54      1.0000 0.33450  0.47452  0.00743  Biso   1.000  C
  C55      1.0000 0.38889  0.45689  0.00229  Biso   1.000  C
  C56      1.0000 0.42423  0.50124  0.00148  Biso   1.000  C
  C57      1.0000 0.40266  0.40658  0.99857  Biso   1.000  C
  C58      1.0000 0.44853  0.30244  0.98638  Biso   1.000  C
  C59      1.0000 0.54863  0.29894  0.98719  Biso   1.000  C
  C60      1.0000 0.69818  0.44852  0.00210  Biso   1.000  C
  C61      1.0000 0.70165  0.54843  0.00016  Biso   1.000  C
  C62      1.0000 0.55145  0.69812  0.00155  Biso   1.000  C
  C63      1.0000 0.45152  0.70156  0.00240  Biso   1.000  C
  C64      1.0000 0.29894  0.45109  0.01062  Biso   1.000  C
  C65      1.0000 0.30237  0.55114  0.01288  Biso   1.000  C
  C66      1.0000 0.50004  0.49997  0.00026  Biso   1.000  C
  C67      1.0000 0.00943  0.52739  0.66293  Biso   1.000  C
  C68      1.0000 0.01283  0.47616  0.66509  Biso   1.000  C
  C69      1.0000 0.00690  0.45777  0.61103  Biso   1.000  C
  C70      1.0000 0.00135  0.50169  0.57562  Biso   1.000  C
  C71      1.0000 0.00186  0.54237  0.60756  Biso   1.000  C
  C72      1.0000 0.00421  0.40723  0.59777  Biso   1.000  C
  C73      1.0000 0.99858  0.39217  0.54243  Biso   1.000  C
  C74      1.0000 0.99106  0.33677  0.52747  Biso   1.000  C
  C75      1.0000 0.98752  0.33462  0.47625  Biso   1.000  C
  C76      1.0000 0.99329  0.38868  0.45785  Biso   1.000  C
  C77      1.0000 0.99891  0.42411  0.50175  Biso   1.000  C
  C78      1.0000 0.99580  0.40195  0.40730  Biso   1.000  C
  C79      1.0000 0.00128  0.45730  0.39222  Biso   1.000  C
  C80      1.0000 0.00861  0.47228  0.33681  Biso   1.000  C
  C81      1.0000 0.01206  0.52350  0.33464  Biso   1.000  C
  C82      1.0000 0.00641  0.54189  0.38872  Biso   1.000  C
  C83      1.0000 0.00097  0.49798  0.42416  Biso   1.000  C
  C84      1.0000 0.00385  0.59243  0.40200  Biso   1.000  C
  C85      1.0000 0.99851  0.60751  0.45737  Biso   1.000  C
  C86      1.0000 0.99112  0.66291  0.47236  Biso   1.000  C
  C87      1.0000 0.98783  0.66507  0.52359  Biso   1.000  C
  C88      1.0000 0.99364  0.61099  0.54197  Biso   1.000  C
  C89      1.0000 0.99900  0.57557  0.49804  Biso   1.000  C
  C90      1.0000 0.99637  0.59772  0.59250  Biso   1.000  C
  C91      1.0000 0.01286  0.55323  0.69673  Biso   1.000  C
  C92      1.0000 0.01915  0.45327  0.70058  Biso   1.000  C
  C93      1.0000 0.98777  0.30297  0.55331  Biso   1.000  C
  C94      1.0000 0.98120  0.29912  0.45338  Biso   1.000  C
  C95      1.0000 0.01185  0.44643  0.30299  Biso   1.000  C
  C96      1.0000 0.01825  0.54638  0.29912  Biso   1.000  C
  C97      1.0000 0.98166  0.70058  0.54650  Biso   1.000  C
  C98      1.0000 0.98774  0.69671  0.44653  Biso   1.000  C
  C99      1.0000 0.00006  0.49984  0.49989  Biso   1.000  C
  C100     1.0000 0.92899  0.99922  0.86339  Biso   1.000  C
  C101     1.0000 0.92766  0.00028  0.13578  Biso   1.000  C
  C102     1.0000 0.86391  0.92783  0.99725  Biso   1.000  C
  C103     1.0000 0.86370  0.07141  0.00125  Biso   1.000  C
  C104     1.0000 0.92795  0.13589  0.00090  Biso   1.000  C
  C105     1.0000 0.92839  0.86360  0.99828  Biso   1.000  C
  C106     1.0000 0.86356  0.00165  0.07113  Biso   1.000  C
  C107     1.0000 0.86427  0.99770  0.92740  Biso   1.000  C
  C108     1.0000 0.90681  0.99969  0.99947  Biso   1.000  C
  C109     1.0000 0.95178  0.04747  0.04780  Biso   1.000  C
  C110     1.0000 0.95238  0.95209  0.95154  Biso   1.000  C
  C111     1.0000 0.87994  0.99773  0.87851  Biso   1.000  C
  C112     1.0000 0.87876  0.00169  0.12018  Biso   1.000  C
  C113     1.0000 0.87941  0.87888  0.99708  Biso   1.000  C
  C114     1.0000 0.87900  0.12042  0.00164  Biso   1.000  C
  C115     1.0000 0.92966  0.92937  0.06960  Biso   1.000  C
  C116     1.0000 0.95218  0.95197  0.04718  Biso   1.000  C
  C117     1.0000 0.93013  0.07010  0.92956  Biso   1.000  C
  C118     1.0000 0.95252  0.04756  0.95219  Biso   1.000  C
  C119     1.0000 0.07112  0.99846  0.13648  Biso   1.000  C
  C120     1.0000 0.07252  0.00141  0.86417  Biso   1.000  C
  C121     1.0000 0.00142  0.86341  0.07107  Biso   1.000  C
  C122     1.0000 0.99706  0.13568  0.07225  Biso   1.000  C
  C123     1.0000 0.00155  0.13629  0.92874  Biso   1.000  C
  C124     1.0000 0.99787  0.86406  0.92751  Biso   1.000  C
  C125     1.0000 0.13615  0.92814  0.00250  Biso   1.000  C
  C126     1.0000 0.13607  0.07180  0.99990  Biso   1.000  C
  C127     1.0000 0.07183  0.86373  0.00080  Biso   1.000  C
  C128     1.0000 0.07158  0.13603  0.99867  Biso   1.000  C
  C129     1.0000 0.00206  0.92745  0.13573  Biso   1.000  C
  C130     1.0000 0.99921  0.92870  0.86347  Biso   1.000  C
  C131     1.0000 0.00316  0.07225  0.86412  Biso   1.000  C
  C132     1.0000 0.99773  0.07103  0.13631  Biso   1.000  C
  C133     1.0000 0.13581  0.99760  0.07247  Biso   1.000  C
  C134     1.0000 0.13654  0.00242  0.92887  Biso   1.000  C
  C135     1.0000 0.99961  0.99945  0.09307  Biso   1.000  C
  C136     1.0000 0.00056  0.00024  0.90679  Biso   1.000  C
  C137     1.0000 0.00005  0.90671  0.99952  Biso   1.000  C
  C138     1.0000 0.99979  0.09299  0.00026  Biso   1.000  C
  C139     1.0000 0.09319  0.99995  0.00047  Biso   1.000  C
  C140     1.0000 0.04813  0.04801  0.95250  Biso   1.000  C
  C141     1.0000 0.04774  0.95175  0.04788  Biso   1.000  C
  C142     1.0000 0.12016  0.99730  0.12136  Biso   1.000  C
  C143     1.0000 0.12139  0.00268  0.87981  Biso   1.000  C
  C144     1.0000 0.00257  0.87853  0.12011  Biso   1.000  C
  C145     1.0000 0.99648  0.12006  0.12117  Biso   1.000  C
  C146     1.0000 0.00325  0.12117  0.87972  Biso   1.000  C
  C147     1.0000 0.99774  0.87967  0.87859  Biso   1.000  C
  C148     1.0000 0.12078  0.87914  0.00245  Biso   1.000  C
  C149     1.0000 0.12061  0.12074  0.99865  Biso   1.000  C
  C150     1.0000 0.07058  0.92997  0.92988  Biso   1.000  C
  C151     1.0000 0.04797  0.95243  0.95236  Biso   1.000  C
  C152     1.0000 0.06963  0.06994  0.07069  Biso   1.000  C
  C153     1.0000 0.04732  0.04741  0.04798  Biso   1.000  C
  C154     1.0000 0.28231  0.99700  0.28465  Biso   1.000  C
  C155     1.0000 0.28894  0.04133  0.31744  Biso   1.000  C
  C156     1.0000 0.32810  0.04203  0.35654  Biso   1.000  C
  C157     1.0000 0.36096  0.99807  0.36448  Biso   1.000  C
  C158     1.0000 0.35434  0.95367  0.33192  Biso   1.000  C
  C159     1.0000 0.31575  0.95329  0.29219  Biso   1.000  C
  C160     1.0000 0.24066  0.99644  0.24288  Biso   1.000  C
  C161     1.0000 0.25191  0.97827  0.19165  Biso   1.000  C
  C162     1.0000 0.21300  0.97873  0.15222  Biso   1.000  C
  C163     1.0000 0.16154  0.99650  0.16325  Biso   1.000  C
  C164     1.0000 0.15015  0.01401  0.21471  Biso   1.000  C
  C165     1.0000 0.18929  0.01438  0.25385  Biso   1.000  C
  C166     1.0000 0.33266  0.07683  0.38091  Biso   1.000  C
  C167     1.0000 0.37918  0.91933  0.33730  Biso   1.000  C
  C168     1.0000 0.22316  0.96480  0.11313  Biso   1.000  C
  C169     1.0000 0.11107  0.02816  0.22462  Biso   1.000  C
  C170     1.0000 0.31144  0.91843  0.26787  Biso   1.000  C
  C171     1.0000 0.29114  0.96453  0.18182  Biso   1.000  C
  C172     1.0000 0.26424  0.07581  0.31231  Biso   1.000  C
  C173     1.0000 0.17922  0.02822  0.29300  Biso   1.000  C
  C174     1.0000 0.71523  0.00329  0.28210  Biso   1.000  C
  C175     1.0000 0.70733  0.95881  0.31442  Biso   1.000  C
  C176     1.0000 0.66762  0.95851  0.35299  Biso   1.000  C
  C177     1.0000 0.63546  0.00298  0.36083  Biso   1.000  C
  C178     1.0000 0.64355  0.04764  0.32893  Biso   1.000  C
  C179     1.0000 0.68266  0.04763  0.28972  Biso   1.000  C
  C180     1.0000 0.75722  0.00335  0.24067  Biso   1.000  C
  C181     1.0000 0.74669  0.02203  0.18947  Biso   1.000  C
  C182     1.0000 0.78590  0.02123  0.15036  Biso   1.000  C
  C183     1.0000 0.83699  0.00261  0.16169  Biso   1.000  C
  C184     1.0000 0.84767  0.98454  0.21312  Biso   1.000  C
  C185     1.0000 0.80819  0.98448  0.25193  Biso   1.000  C
  C186     1.0000 0.66200  0.92356  0.37692  Biso   1.000  C
  C187     1.0000 0.61935  0.08243  0.33432  Biso   1.000  C
  C188     1.0000 0.77631  0.03563  0.11129  Biso   1.000  C
  C189     1.0000 0.88645  0.96976  0.22325  Biso   1.000  C
  C190     1.0000 0.68800  0.08262  0.26580  Biso   1.000  C
  C191     1.0000 0.70776  0.03650  0.17942  Biso   1.000  C
  C192     1.0000 0.73140  0.92389  0.30926  Biso   1.000  C
  C193     1.0000 0.81770  0.97021  0.29106  Biso   1.000  C
  C194     1.0000 0.71774  0.99717  0.71523  Biso   1.000  C
  C195     1.0000 0.71107  0.04148  0.68242  Biso   1.000  C
  C196     1.0000 0.67190  0.04213  0.64332  Biso   1.000  C
  C197     1.0000 0.63907  0.99813  0.63542  Biso   1.000  C
  C198     1.0000 0.64574  0.95376  0.66799  Biso   1.000  C
  C199     1.0000 0.68434  0.95343  0.70771  Biso   1.000  C
  C200     1.0000 0.75941  0.99667  0.75699  Biso   1.000  C
  C201     1.0000 0.74823  0.97841  0.80821  Biso   1.000  C
  C202     1.0000 0.78715  0.97893  0.84762  Biso   1.000  C
  C203     1.0000 0.83856  0.99687  0.83661  Biso   1.000  C
  C204     1.0000 0.84988  0.01446  0.78516  Biso   1.000  C
  C205     1.0000 0.81073  0.01476  0.74603  Biso   1.000  C
  C206     1.0000 0.66730  0.07691  0.61894  Biso   1.000  C
  C207     1.0000 0.62092  0.91939  0.66264  Biso   1.000  C
  C208     1.0000 0.77703  0.96492  0.88670  Biso   1.000  C
  C209     1.0000 0.88892  0.02871  0.77525  Biso   1.000  C
  C210     1.0000 0.68869  0.91858  0.73204  Biso   1.000  C
  C211     1.0000 0.70903  0.96454  0.81803  Biso   1.000  C
  C212     1.0000 0.73572  0.07599  0.68753  Biso   1.000  C
  C213     1.0000 0.82076  0.02866  0.70689  Biso   1.000  C
  C214     1.0000 0.28485  0.00390  0.71783  Biso   1.000  C
  C215     1.0000 0.29264  0.95937  0.68556  Biso   1.000  C
  C216     1.0000 0.33233  0.95895  0.64697  Biso   1.000  C
  C217     1.0000 0.36459  0.00335  0.63907  Biso   1.000  C
  C218     1.0000 0.35659  0.04805  0.67092  Biso   1.000  C
  C219     1.0000 0.31751  0.04816  0.71016  Biso   1.000  C
  C220     1.0000 0.24287  0.00409  0.75927  Biso   1.000  C
  C221     1.0000 0.25349  0.02274  0.81048  Biso   1.000  C
  C222     1.0000 0.21428  0.02205  0.84961  Biso   1.000  C
  C223     1.0000 0.16314  0.00358  0.83829  Biso   1.000  C
  C224     1.0000 0.15240  0.98554  0.78686  Biso   1.000  C
  C225     1.0000 0.19185  0.98537  0.74804  Biso   1.000  C
  C226     1.0000 0.33788  0.92396  0.62307  Biso   1.000  C
  C227     1.0000 0.38087  0.08279  0.66550  Biso   1.000  C
  C228     1.0000 0.22393  0.03641  0.88868  Biso   1.000  C
  C229     1.0000 0.11357  0.97083  0.77675  Biso   1.000  C
  C230     1.0000 0.31225  0.08319  0.73404  Biso   1.000  C
  C231     1.0000 0.29246  0.03709  0.82050  Biso   1.000  C
  C232     1.0000 0.26850  0.92451  0.69076  Biso   1.000  C
  C233     1.0000 0.18229  0.97111  0.70891  Biso   1.000  C
  C234     1.0000 0.28281  0.28418  0.99776  Biso   1.000  C
  C235     1.0000 0.28722  0.31993  0.95549  Biso   1.000  C
  C236     1.0000 0.32626  0.35918  0.95554  Biso   1.000  C
  C237     1.0000 0.36133  0.36417  0.99823  Biso   1.000  C
  C238     1.0000 0.35685  0.32871  0.04061  Biso   1.000  C
  C239     1.0000 0.31831  0.28896  0.04023  Biso   1.000  C
  C240     1.0000 0.24131  0.24220  0.99763  Biso   1.000  C
  C241     1.0000 0.25334  0.19027  0.01311  Biso   1.000  C
  C242     1.0000 0.21445  0.15086  0.01289  Biso   1.000  C
  C243     1.0000 0.16221  0.16247  0.99794  Biso   1.000  C
  C244     1.0000 0.15016  0.21450  0.98265  Biso   1.000  C
  C245     1.0000 0.18925  0.25371  0.98214  Biso   1.000  C
  C246     1.0000 0.32908  0.38590  0.92232  Biso   1.000  C
  C247     1.0000 0.38331  0.33187  0.07401  Biso   1.000  C
  C248     1.0000 0.22524  0.11135  0.02503  Biso   1.000  C
  C249     1.0000 0.11048  0.22492  0.97071  Biso   1.000  C
  C250     1.0000 0.31570  0.26243  0.07361  Biso   1.000  C
  C251     1.0000 0.29311  0.17995  0.02480  Biso   1.000  C
  C252     1.0000 0.26090  0.31704  0.92196  Biso   1.000  C
  C253     1.0000 0.17854  0.29337  0.97039  Biso   1.000  C
  C254     1.0000 0.28396  0.71684  0.00476  Biso   1.000  C
  C255     1.0000 0.29050  0.68297  0.96122  Biso   1.000  C
  C256     1.0000 0.33033  0.64451  0.96098  Biso   1.000  C
  C257     1.0000 0.36410  0.63849  0.00453  Biso   1.000  C
  C258     1.0000 0.35721  0.67178  0.04836  Biso   1.000  C
  C259     1.0000 0.31792  0.71080  0.04829  Biso   1.000  C
  C260     1.0000 0.24202  0.75833  0.00466  Biso   1.000  C
  C261     1.0000 0.25302  0.80994  0.02193  Biso   1.000  C
  C262     1.0000 0.21388  0.84910  0.02102  Biso   1.000  C
  C263     1.0000 0.16242  0.83751  0.00359  Biso   1.000  C
  C264     1.0000 0.15130  0.78570  0.98691  Biso   1.000  C
  C265     1.0000 0.19067  0.74678  0.98705  Biso   1.000  C
  C266     1.0000 0.33489  0.61936  0.92674  Biso   1.000  C
  C267     1.0000 0.38252  0.66767  0.08253  Biso   1.000  C
  C268     1.0000 0.22387  0.88845  0.03432  Biso   1.000  C
  C269     1.0000 0.11223  0.77532  0.97309  Biso   1.000  C
  C270     1.0000 0.31361  0.73584  0.08263  Biso   1.000  C
  C271     1.0000 0.29224  0.82025  0.03537  Biso   1.000  C
  C272     1.0000 0.26533  0.68684  0.92692  Biso   1.000  C
  C273     1.0000 0.18077  0.70735  0.97391  Biso   1.000  C
  C274     1.0000 0.71714  0.71578  0.99797  Biso   1.000  C
  C275     1.0000 0.68401  0.70772  0.95413  Biso   1.000  C
  C276     1.0000 0.64552  0.66792  0.95468  Biso   1.000  C
  C277     1.0000 0.63867  0.63581  0.99937  Biso   1.000  C
  C278     1.0000 0.67121  0.64427  0.04347  Biso   1.000  C
  C279     1.0000 0.71029  0.68345  0.04261  Biso   1.000  C
  C280     1.0000 0.75879  0.75753  0.99716  Biso   1.000  C
  C281     1.0000 0.81008  0.74671  0.01537  Biso   1.000  C
  C282     1.0000 0.84925  0.78579  0.01467  Biso   1.000  C
  C283     1.0000 0.83797  0.83707  0.99654  Biso   1.000  C
  C284     1.0000 0.78658  0.84797  0.97851  Biso   1.000  C
  C285     1.0000 0.74764  0.80858  0.97838  Biso   1.000  C
  C286     1.0000 0.62093  0.66211  0.92022  Biso   1.000  C
  C287     1.0000 0.66647  0.62023  0.07847  Biso   1.000  C
  C288     1.0000 0.88828  0.77599  0.02905  Biso   1.000  C
  C289     1.0000 0.77652  0.88692  0.96413  Biso   1.000  C
  C290     1.0000 0.73477  0.68898  0.07719  Biso   1.000  C
  C291     1.0000 0.82007  0.70770  0.02967  Biso   1.000  C
  C292     1.0000 0.68852  0.73167  0.91904  Biso   1.000  C
  C293     1.0000 0.70845  0.81828  0.96440  Biso   1.000  C
  C294     1.0000 0.71539  0.28234  0.00037  Biso   1.000  C
  C295     1.0000 0.70962  0.31628  0.95677  Biso   1.000  C
  C296     1.0000 0.66991  0.35487  0.95596  Biso   1.000  C
  C297     1.0000 0.63561  0.36105  0.99908  Biso   1.000  C
  C298     1.0000 0.64146  0.32739  0.04277  Biso   1.000  C
  C299     1.0000 0.68061  0.28826  0.04326  Biso   1.000  C
  C300     1.0000 0.75742  0.24092  0.00109  Biso   1.000  C
  C301     1.0000 0.74624  0.18934  0.01831  Biso   1.000  C
  C302     1.0000 0.78551  0.15030  0.01836  Biso   1.000  C
  C303     1.0000 0.83728  0.16200  0.00198  Biso   1.000  C
  C304     1.0000 0.84859  0.21378  0.98533  Biso   1.000  C
  C305     1.0000 0.80909  0.25257  0.98450  Biso   1.000  C
  C306     1.0000 0.66598  0.38013  0.92172  Biso   1.000  C
  C307     1.0000 0.61553  0.33143  0.07649  Biso   1.000  C
  C308     1.0000 0.77536  0.11096  0.03158  Biso   1.000  C
  C309     1.0000 0.88790  0.22422  0.97223  Biso   1.000  C
  C310     1.0000 0.68424  0.26310  0.07759  Biso   1.000  C
  C311     1.0000 0.70678  0.17894  0.03098  Biso   1.000  C
  C312     1.0000 0.73537  0.31243  0.92290  Biso   1.000  C
  C313     1.0000 0.81914  0.29199  0.97143  Biso   1.000  C
  C314     1.0000 0.99421  0.28181  0.28513  Biso   1.000  C
  C315     1.0000 0.95269  0.31851  0.28939  Biso   1.000  C
  C316     1.0000 0.95291  0.35709  0.32917  Biso   1.000  C
  C317     1.0000 0.99491  0.36028  0.36522  Biso   1.000  C
  C318     1.0000 0.03666  0.32406  0.36067  Biso   1.000  C
  C319     1.0000 0.03614  0.28509  0.32141  Biso   1.000  C
  C320     1.0000 0.99397  0.24029  0.24315  Biso   1.000  C
  C321     1.0000 0.00888  0.18810  0.25482  Biso   1.000  C
  C322     1.0000 0.00915  0.14917  0.21549  Biso   1.000  C
  C323     1.0000 0.99514  0.16142  0.16315  Biso   1.000  C
  C324     1.0000 0.98028  0.21366  0.15144  Biso   1.000  C
  C325     1.0000 0.97935  0.25246  0.19098  Biso   1.000  C
  C326     1.0000 0.92032  0.38460  0.33182  Biso   1.000  C
  C327     1.0000 0.06972  0.32601  0.38767  Biso   1.000  C
  C328     1.0000 0.02096  0.10949  0.22606  Biso   1.000  C
  C329     1.0000 0.96909  0.22458  0.11168  Biso   1.000  C
  C330     1.0000 0.06904  0.25795  0.31889  Biso   1.000  C
  C331     1.0000 0.01988  0.17722  0.29464  Biso   1.000  C
  C332     1.0000 0.91963  0.31687  0.26239  Biso   1.000  C
  C333     1.0000 0.96807  0.29232  0.18052  Biso   1.000  C
  C334     1.0000 0.00566  0.28511  0.71795  Biso   1.000  C
  C335     1.0000 0.04711  0.28920  0.68115  Biso   1.000  C
  C336     1.0000 0.04694  0.32897  0.64255  Biso   1.000  C
  C337     1.0000 0.00504  0.36516  0.63945  Biso   1.000  C
  C338     1.0000 0.96336  0.36076  0.67577  Biso   1.000  C
  C339     1.0000 0.96385  0.32152  0.71475  Biso   1.000  C
  C340     1.0000 0.00586  0.24313  0.75947  Biso   1.000  C
  C341     1.0000 0.99116  0.25487  0.81170  Biso   1.000  C
  C342     1.0000 0.99085  0.21555  0.85065  Biso   1.000  C
  C343     1.0000 0.00459  0.16314  0.83835  Biso   1.000  C
  C344     1.0000 0.01924  0.15137  0.78606  Biso   1.000  C
  C345     1.0000 0.02020  0.19090  0.74725  Biso   1.000  C
  C346     1.0000 0.07947  0.33150  0.61497  Biso   1.000  C
  C347     1.0000 0.93038  0.38787  0.67388  Biso   1.000  C
  C348     1.0000 0.97924  0.22619  0.89037  Biso   1.000  C
  C349     1.0000 0.03022  0.11156  0.77509  Biso   1.000  C
  C350     1.0000 0.93101  0.31912  0.74197  Biso   1.000  C
  C351     1.0000 0.98037  0.29474  0.82262  Biso   1.000  C
  C352     1.0000 0.08008  0.26209  0.68272  Biso   1.000  C
  C353     1.0000 0.03131  0.18039  0.70736  Biso   1.000  C
  C354     1.0000 0.99536  0.71788  0.71466  Biso   1.000  C
  C355     1.0000 0.95379  0.68123  0.71055  Biso   1.000  C
  C356     1.0000 0.95382  0.64264  0.67078  Biso   1.000  C
  C357     1.0000 0.99569  0.63940  0.63458  Biso   1.000  C
  C358     1.0000 0.03750  0.67558  0.63897  Biso   1.000  C
  C359     1.0000 0.03715  0.71456  0.67823  Biso   1.000  C
  C360     1.0000 0.99530  0.75940  0.75665  Biso   1.000  C
  C361     1.0000 0.01024  0.81158  0.74495  Biso   1.000  C
  C362     1.0000 0.01055  0.85053  0.78428  Biso   1.000  C
  C363     1.0000 0.99657  0.83829  0.83663  Biso   1.000  C
  C364     1.0000 0.98174  0.78604  0.84837  Biso   1.000  C
  C365     1.0000 0.98078  0.74723  0.80884  Biso   1.000  C
  C366     1.0000 0.92120  0.61516  0.66825  Biso   1.000  C
  C367     1.0000 0.07046  0.67359  0.61185  Biso   1.000  C
  C368     1.0000 0.02233  0.89021  0.77369  Biso   1.000  C
  C369     1.0000 0.97058  0.77512  0.88813  Biso   1.000  C
  C370     1.0000 0.07009  0.74166  0.68063  Biso   1.000  C
  C371     1.0000 0.02118  0.82245  0.70512  Biso   1.000  C
  C372     1.0000 0.92082  0.68291  0.73766  Biso   1.000  C
  C373     1.0000 0.96950  0.70738  0.81932  Biso   1.000  C
  C374     1.0000 0.00496  0.71460  0.28186  Biso   1.000  C
  C375     1.0000 0.96311  0.67824  0.28521  Biso   1.000  C
  C376     1.0000 0.96273  0.63898  0.32418  Biso   1.000  C
  C377     1.0000 0.00457  0.63451  0.36032  Biso   1.000  C
  C378     1.0000 0.04650  0.67064  0.35705  Biso   1.000  C
  C379     1.0000 0.04656  0.71042  0.31847  Biso   1.000  C
  C380     1.0000 0.00505  0.75659  0.24035  Biso   1.000  C
  C381     1.0000 0.01953  0.80878  0.25254  Biso   1.000  C
  C382     1.0000 0.01856  0.84832  0.21374  Biso   1.000  C
  C383     1.0000 0.00378  0.83657  0.16148  Biso   1.000  C
  C384     1.0000 0.98985  0.78421  0.14922  Biso   1.000  C
  C385     1.0000 0.99015  0.74489  0.18816  Biso   1.000  C
  C386     1.0000 0.92973  0.61191  0.32620  Biso   1.000  C
  C387     1.0000 0.07914  0.66805  0.38449  Biso   1.000  C
  C388     1.0000 0.02969  0.88809  0.22467  Biso   1.000  C
  C389     1.0000 0.97810  0.77362  0.10953  Biso   1.000  C
  C390     1.0000 0.07956  0.73748  0.31677  Biso   1.000  C
  C391     1.0000 0.03078  0.81926  0.29240  Biso   1.000  C
  C392     1.0000 0.93016  0.68070  0.25814  Biso   1.000  C
  C393     1.0000 0.97924  0.70505  0.17728  Biso   1.000  C
  O1       1.0000 0.82851  0.03945  0.47343  Biso   1.000  O
  O2       1.0000 0.82822  0.98541  0.47313  Biso   1.000  O
  O3       1.0000 0.87972  0.96896  0.48235  Biso   1.000  O
  O4       1.0000 0.91095  0.01186  0.48961  Biso   1.000  O
  O5       1.0000 0.87984  0.05496  0.48390  Biso   1.000  O
  O6       1.0000 0.89598  0.91539  0.48894  Biso   1.000  O
  O7       1.0000 0.94991  0.90074  0.49782  Biso   1.000  O
  O8       1.0000 0.96728  0.85028  0.51068  Biso   1.000  O
  O9       1.0000 0.02140  0.85152  0.51146  Biso   1.000  O
  O10      1.0000 0.03650  0.90224  0.49787  Biso   1.000  O
  O11      1.0000 0.99277  0.93189  0.48888  Biso   1.000  O
  O12      1.0000 0.08980  0.91838  0.49041  Biso   1.000  O
  O13      1.0000 0.10596  0.97165  0.48379  Biso   1.000  O
  O14      1.0000 0.15728  0.98718  0.47332  Biso   1.000  O
  O15      1.0000 0.15757  0.04122  0.47310  Biso   1.000  O
  O16      1.0000 0.10607  0.05765  0.48238  Biso   1.000  O
  O17      1.0000 0.07485  0.01475  0.48959  Biso   1.000  O
  O18      1.0000 0.08981  0.11121  0.48909  Biso   1.000  O
  O19      1.0000 0.03590  0.12584  0.49804  Biso   1.000  O
  O20      1.0000 0.01854  0.17626  0.51102  Biso   1.000  O
  O21      1.0000 0.96442  0.17503  0.51180  Biso   1.000  O
  O22      1.0000 0.94930  0.12434  0.49809  Biso   1.000  O
  O23      1.0000 0.99302  0.09470  0.48902  Biso   1.000  O
  O24      1.0000 0.89599  0.10822  0.49059  Biso   1.000  O
  O25      1.0000 0.79436  0.06438  0.46752  Biso   1.000  O
  O26      1.0000 0.79331  0.96145  0.46808  Biso   1.000  O
  O27      1.0000 0.99323  0.05736  0.47245  Biso   1.000  O
  O28      1.0000 0.94404  0.81522  0.51748  Biso   1.000  O
  O29      1.0000 0.04672  0.81820  0.51996  Biso   1.000  O
  O30      1.0000 0.19142  0.96226  0.46734  Biso   1.000  O
  O31      1.0000 0.19246  0.06520  0.46806  Biso   1.000  O
  O32      1.0000 0.93910  0.20833  0.52039  Biso   1.000  O
  O33      1.0000 0.99256  0.96928  0.47241  Biso   1.000  O
  O34      1.0000 0.04179  0.21130  0.51792  Biso   1.000  O
  O35      1.0000 0.51472  0.98593  0.82629  Biso   1.000  O
  O36      1.0000 0.51565  0.03997  0.82711  Biso   1.000  O
  O37      1.0000 0.50372  0.05516  0.87818  Biso   1.000  O
  O38      1.0000 0.49628  0.01193  0.90871  Biso   1.000  O
  O39      1.0000 0.50361  0.96917  0.87734  Biso   1.000  O
  O40      1.0000 0.49576  0.10811  0.89449  Biso   1.000  O
  O41      1.0000 0.48548  0.12278  0.94763  Biso   1.000  O
  O42      1.0000 0.46370  0.17063  0.96260  Biso   1.000  O
  O43      1.0000 0.46199  0.17096  0.01674  Biso   1.000  O
  O44      1.0000 0.48355  0.12358  0.03389  Biso   1.000  O
  O45      1.0000 0.49792  0.09416  0.99130  Biso   1.000  O
  O46      1.0000 0.49039  0.10934  0.08794  Biso   1.000  O
  O47      1.0000 0.49822  0.05583  0.10366  Biso   1.000  O
  O48      1.0000 0.51448  0.03959  0.15337  Biso   1.000  O
  O49      1.0000 0.51437  0.98557  0.15312  Biso   1.000  O
  O50      1.0000 0.49960  0.97001  0.10285  Biso   1.000  O
  O51      1.0000 0.48894  0.01306  0.07272  Biso   1.000  O
  O52      1.0000 0.49351  0.91671  0.08671  Biso   1.000  O
  O53      1.0000 0.48573  0.90082  0.03339  Biso   1.000  O
  O54      1.0000 0.47563  0.84947  0.01768  Biso   1.000  O
  O55      1.0000 0.47633  0.84899  0.96354  Biso   1.000  O
  O56      1.0000 0.48640  0.90028  0.94675  Biso   1.000  O
  O57      1.0000 0.49264  0.93139  0.99001  Biso   1.000  O
  O58      1.0000 0.49551  0.91559  0.89302  Biso   1.000  O
  O59      1.0000 0.52023  0.96229  0.79126  Biso   1.000  O
  O60      1.0000 0.52291  0.06511  0.79339  Biso   1.000  O
  O61      1.0000 0.50701  0.96978  0.99039  Biso   1.000  O
  O62      1.0000 0.44980  0.20193  0.93710  Biso   1.000  O
  O63      1.0000 0.44608  0.20251  0.04070  Biso   1.000  O
  O64      1.0000 0.52579  0.06397  0.18652  Biso   1.000  O
  O65      1.0000 0.52455  0.96080  0.18634  Biso   1.000  O
  O66      1.0000 0.47222  0.81382  0.93980  Biso   1.000  O
  O67      1.0000 0.51919  0.05906  0.99200  Biso   1.000  O
  O68      1.0000 0.47033  0.81514  0.04247  Biso   1.000  O
  O69      1.0000 0.15001  0.54859  0.01831  Biso   1.000  O
  O70      1.0000 0.14990  0.54973  0.96426  Biso   1.000  O
  O71      1.0000 0.10401  0.52480  0.94799  Biso   1.000  O
  O72      1.0000 0.07553  0.50873  0.99057  Biso   1.000  O
  O73      1.0000 0.10411  0.52311  0.03368  Biso   1.000  O
  O74      1.0000 0.08974  0.51518  0.89458  Biso   1.000  O
  O75      1.0000 0.03642  0.50367  0.88075  Biso   1.000  O
  O76      1.0000 0.02061  0.47729  0.83546  Biso   1.000  O
  O77      1.0000 0.96641  0.47734  0.83519  Biso   1.000  O
  O78      1.0000 0.95015  0.50376  0.88031  Biso   1.000  O
  O79      1.0000 0.99318  0.51933  0.90847  Biso   1.000  O
  O80      1.0000 0.89660  0.51480  0.89384  Biso   1.000  O
  O81      1.0000 0.88201  0.52510  0.94703  Biso   1.000  O
  O82      1.0000 0.83474  0.54754  0.96322  Biso   1.000  O
  O83      1.0000 0.83496  0.54722  0.01735  Biso   1.000  O
  O84      1.0000 0.88263  0.52538  0.03262  Biso   1.000  O
  O85      1.0000 0.91156  0.51163  0.98965  Biso   1.000  O
  O86      1.0000 0.89733  0.51457  0.08535  Biso   1.000  O
  O87      1.0000 0.95000  0.50193  0.09939  Biso   1.000  O
  O88      1.0000 0.96502  0.47765  0.14599  Biso   1.000  O
  O89      1.0000 0.01928  0.47657  0.14633  Biso   1.000  O
  O90      1.0000 0.03614  0.50109  0.10029  Biso   1.000  O
  O91      1.0000 0.99349  0.51614  0.07147  Biso   1.000  O
  O92      1.0000 0.08965  0.51164  0.08681  Biso   1.000  O
  O93      1.0000 0.18008  0.56553  0.04345  Biso   1.000  O
  O94      1.0000 0.17993  0.56765  0.93976  Biso   1.000  O
  O95      1.0000 0.99402  0.53919  0.03742  Biso   1.000  O
  O96      1.0000 0.04557  0.45938  0.80581  Biso   1.000  O
  O97      1.0000 0.94177  0.45935  0.80532  Biso   1.000  O
  O98      1.0000 0.80333  0.56279  0.93867  Biso   1.000  O
  O99      1.0000 0.80369  0.56164  0.04259  Biso   1.000  O
  O100     1.0000 0.04350  0.45973  0.17718  Biso   1.000  O
  O101     1.0000 0.99318  0.54306  0.94206  Biso   1.000  O
  O102     1.0000 0.93950  0.46229  0.17659  Biso   1.000  O
  O103     1.0000 0.35615  0.44197  0.48955  Biso   1.000  O
  O104     1.0000 0.62875  0.44082  0.49161  Biso   1.000  O
  O105     1.0000 0.49025  0.37689  0.41873  Biso   1.000  O
  O106     1.0000 0.49379  0.37713  0.56275  Biso   1.000  O
  O107     1.0000 0.49480  0.44160  0.62696  Biso   1.000  O
  O108     1.0000 0.49027  0.44119  0.35440  Biso   1.000  O
  O109     1.0000 0.56417  0.37672  0.49245  Biso   1.000  O
  O110     1.0000 0.42019  0.37730  0.48831  Biso   1.000  O
  O111     1.0000 0.49212  0.41994  0.49043  Biso   1.000  O
  O112     1.0000 0.54078  0.46501  0.53876  Biso   1.000  O
  O113     1.0000 0.44436  0.46523  0.44251  Biso   1.000  O
  O114     1.0000 0.37131  0.39295  0.48825  Biso   1.000  O
  O115     1.0000 0.61318  0.39195  0.49275  Biso   1.000  O
  O116     1.0000 0.48935  0.39223  0.36975  Biso   1.000  O
  O117     1.0000 0.49496  0.39260  0.61168  Biso   1.000  O
  O118     1.0000 0.56281  0.44247  0.42017  Biso   1.000  O
  O119     1.0000 0.54044  0.46511  0.44271  Biso   1.000  O
  O120     1.0000 0.42221  0.44332  0.56118  Biso   1.000  O
  O121     1.0000 0.44482  0.46570  0.53861  Biso   1.000  O
  O122     1.0000 0.62967  0.58454  0.48914  Biso   1.000  O
  O123     1.0000 0.35705  0.58580  0.49172  Biso   1.000  O
  O124     1.0000 0.56466  0.51469  0.35423  Biso   1.000  O
  O125     1.0000 0.56495  0.51163  0.62684  Biso   1.000  O
  O126     1.0000 0.42096  0.51584  0.62695  Biso   1.000  O
  O127     1.0000 0.42071  0.51155  0.35440  Biso   1.000  O
  O128     1.0000 0.49602  0.64941  0.41825  Biso   1.000  O
  O129     1.0000 0.49265  0.64986  0.56219  Biso   1.000  O
  O130     1.0000 0.49408  0.58486  0.35405  Biso   1.000  O
  O131     1.0000 0.49084  0.58562  0.62667  Biso   1.000  O
  O132     1.0000 0.62904  0.51473  0.41850  Biso   1.000  O
  O133     1.0000 0.35647  0.51160  0.41879  Biso   1.000  O
  O134     1.0000 0.35663  0.51587  0.56263  Biso   1.000  O
  O135     1.0000 0.62916  0.51059  0.56241  Biso   1.000  O
  O136     1.0000 0.56568  0.64925  0.48777  Biso   1.000  O
  O137     1.0000 0.42166  0.64990  0.49210  Biso   1.000  O
  O138     1.0000 0.58615  0.51263  0.49024  Biso   1.000  O
  O139     1.0000 0.39957  0.51394  0.49044  Biso   1.000  O
  O140     1.0000 0.49245  0.51287  0.39727  Biso   1.000  O
  O141     1.0000 0.49266  0.51377  0.58391  Biso   1.000  O
  O142     1.0000 0.49373  0.60667  0.49010  Biso   1.000  O
  O143     1.0000 0.44503  0.56183  0.53864  Biso   1.000  O
  O144     1.0000 0.54127  0.56115  0.44220  Biso   1.000  O
  O145     1.0000 0.61455  0.63357  0.48774  Biso   1.000  O
  O146     1.0000 0.37264  0.63468  0.49262  Biso   1.000  O
  O147     1.0000 0.61366  0.51535  0.36954  Biso   1.000  O
  O148     1.0000 0.61390  0.51037  0.61142  Biso   1.000  O
  O149     1.0000 0.37198  0.51664  0.61160  Biso   1.000  O
  O150     1.0000 0.37176  0.51091  0.36980  Biso   1.000  O
  O151     1.0000 0.49577  0.63379  0.36937  Biso   1.000  O
  O152     1.0000 0.49118  0.63454  0.61115  Biso   1.000  O
  O153     1.0000 0.42273  0.58391  0.42021  Biso   1.000  O
  O154     1.0000 0.44520  0.56133  0.44272  Biso   1.000  O
  O155     1.0000 0.56371  0.58348  0.56080  Biso   1.000  O
  O156     1.0000 0.54104  0.56106  0.53835  Biso   1.000  O
  O157     1.0000 0.77736  0.79576  0.48746  Biso   1.000  O
  O158     1.0000 0.80867  0.80403  0.53300  Biso   1.000  O
  O159     1.0000 0.84738  0.84355  0.53369  Biso   1.000  O
  O160     1.0000 0.85665  0.87522  0.48843  Biso   1.000  O
  O161     1.0000 0.82533  0.86664  0.44329  Biso   1.000  O
  O162     1.0000 0.78599  0.82773  0.44296  Biso   1.000  O
  O163     1.0000 0.73576  0.75407  0.48700  Biso   1.000  O
  O164     1.0000 0.68482  0.76501  0.46792  Biso   1.000  O
  O165     1.0000 0.64548  0.72608  0.46837  Biso   1.000  O
  O166     1.0000 0.65636  0.67491  0.48698  Biso   1.000  O
  O167     1.0000 0.70757  0.66382  0.50593  Biso   1.000  O
  O168     1.0000 0.74660  0.70304  0.50638  Biso   1.000  O
  O169     1.0000 0.86976  0.84986  0.56956  Biso   1.000  O
  O170     1.0000 0.83163  0.88992  0.40799  Biso   1.000  O
  O171     1.0000 0.60656  0.73599  0.45378  Biso   1.000  O
  O172     1.0000 0.71730  0.62495  0.52077  Biso   1.000  O
  O173     1.0000 0.76280  0.82203  0.40753  Biso   1.000  O
  O174     1.0000 0.67516  0.80403  0.45344  Biso   1.000  O
  O175     1.0000 0.80247  0.78052  0.56813  Biso   1.000  O
  O176     1.0000 0.78556  0.69331  0.52099  Biso   1.000  O
  O177     1.0000 0.77532  0.22918  0.49273  Biso   1.000  O
  O178     1.0000 0.77735  0.19051  0.53304  Biso   1.000  O
  O179     1.0000 0.81657  0.15154  0.53253  Biso   1.000  O
  O180     1.0000 0.85422  0.14997  0.49137  Biso   1.000  O
  O181     1.0000 0.85220  0.18837  0.45149  Biso   1.000  O
  O182     1.0000 0.81334  0.22768  0.45228  Biso   1.000  O
  O183     1.0000 0.73380  0.27093  0.49337  Biso   1.000  O
  O184     1.0000 0.74651  0.32362  0.48159  Biso   1.000  O
  O185     1.0000 0.70757  0.36284  0.48191  Biso   1.000  O
  O186     1.0000 0.65470  0.35033  0.49351  Biso   1.000  O
  O187     1.0000 0.64201  0.29756  0.50581  Biso   1.000  O
  O188     1.0000 0.68111  0.25843  0.50601  Biso   1.000  O
  O189     1.0000 0.81761  0.12248  0.56384  Biso   1.000  O
  O190     1.0000 0.88076  0.18782  0.41972  Biso   1.000  O
  O191     1.0000 0.71888  0.40296  0.47255  Biso   1.000  O
  O192     1.0000 0.60181  0.28643  0.51506  Biso   1.000  O
  O193     1.0000 0.81256  0.25651  0.42077  Biso   1.000  O
  O194     1.0000 0.78680  0.33466  0.47263  Biso   1.000  O
  O195     1.0000 0.74905  0.19090  0.56503  Biso   1.000  O
  O196     1.0000 0.66994  0.21815  0.51483  Biso   1.000  O
  O197     1.0000 0.20849  0.23078  0.48785  Biso   1.000  O
  O198     1.0000 0.17725  0.22236  0.53341  Biso   1.000  O
  O199     1.0000 0.13850  0.18287  0.53401  Biso   1.000  O
  O200     1.0000 0.12914  0.15137  0.48865  Biso   1.000  O
  O201     1.0000 0.16041  0.16008  0.44350  Biso   1.000  O
  O202     1.0000 0.19977  0.19897  0.44324  Biso   1.000  O
  O203     1.0000 0.25012  0.27245  0.48747  Biso   1.000  O
  O204     1.0000 0.30094  0.26167  0.46794  Biso   1.000  O
  O205     1.0000 0.34028  0.30060  0.46840  Biso   1.000  O
  O206     1.0000 0.32952  0.35160  0.48753  Biso   1.000  O
  O207     1.0000 0.27847  0.36255  0.50696  Biso   1.000  O
  O208     1.0000 0.23943  0.32333  0.50736  Biso   1.000  O
  O209     1.0000 0.11617  0.17646  0.56989  Biso   1.000  O
  O210     1.0000 0.15404  0.13692  0.40813  Biso   1.000  O
  O211     1.0000 0.37908  0.29086  0.45335  Biso   1.000  O
  O212     1.0000 0.26885  0.40130  0.52218  Biso   1.000  O
  O213     1.0000 0.22289  0.20479  0.40779  Biso   1.000  O
  O214     1.0000 0.31048  0.22277  0.45305  Biso   1.000  O
  O215     1.0000 0.18353  0.24572  0.56863  Biso   1.000  O
  O216     1.0000 0.20059  0.33296  0.52231  Biso   1.000  O
  O217     1.0000 0.21050  0.79745  0.49249  Biso   1.000  O
  O218     1.0000 0.17252  0.79898  0.45201  Biso   1.000  O
  O219     1.0000 0.13366  0.83828  0.45124  Biso   1.000  O
  O220     1.0000 0.13158  0.87665  0.49116  Biso   1.000  O
  O221     1.0000 0.16921  0.87506  0.53233  Biso   1.000  O
  O222     1.0000 0.20845  0.83609  0.53283  Biso   1.000  O
  O223     1.0000 0.25202  0.75572  0.49313  Biso   1.000  O
  O224     1.0000 0.30472  0.76820  0.50581  Biso   1.000  O
  O225     1.0000 0.34382  0.72908  0.50564  Biso   1.000  O
  O226     1.0000 0.33112  0.67631  0.49333  Biso   1.000  O
  O227     1.0000 0.27827  0.66380  0.48168  Biso   1.000  O
  O228     1.0000 0.23933  0.70302  0.48132  Biso   1.000  O
  O229     1.0000 0.10511  0.83886  0.41945  Biso   1.000  O
  O230     1.0000 0.16816  0.90408  0.56368  Biso   1.000  O
  O231     1.0000 0.38401  0.74020  0.51492  Biso   1.000  O
  O232     1.0000 0.26697  0.62368  0.47229  Biso   1.000  O
  O233     1.0000 0.23673  0.83568  0.56484  Biso   1.000  O
  O234     1.0000 0.31588  0.80848  0.51464  Biso   1.000  O
  O235     1.0000 0.17333  0.77018  0.42048  Biso   1.000  O
  O236     1.0000 0.19905  0.69199  0.47233  Biso   1.000  O
  O237     1.0000 0.49278  0.79664  0.77384  Biso   1.000  O
  O238     1.0000 0.44836  0.80555  0.80581  Biso   1.000  O
  O239     1.0000 0.44898  0.84487  0.84469  Biso   1.000  O
  O240     1.0000 0.49489  0.87582  0.85332  Biso   1.000  O
  O241     1.0000 0.53951  0.86637  0.82152  Biso   1.000  O
  O242     1.0000 0.53855  0.82764  0.78204  Biso   1.000  O
  O243     1.0000 0.49191  0.75519  0.73205  Biso   1.000  O
  O244     1.0000 0.51144  0.76601  0.68107  Biso   1.000  O
  O245     1.0000 0.51050  0.72715  0.64171  Biso   1.000  O
  O246     1.0000 0.49086  0.67618  0.65261  Biso   1.000  O
  O247     1.0000 0.47205  0.66529  0.70371  Biso   1.000  O
  O248     1.0000 0.47214  0.70446  0.74279  Biso   1.000  O
  O249     1.0000 0.41365  0.85156  0.86781  Biso   1.000  O
  O250     1.0000 0.57541  0.88876  0.82760  Biso   1.000  O
  O251     1.0000 0.52548  0.73685  0.60289  Biso   1.000  O
  O252     1.0000 0.45687  0.62655  0.71341  Biso   1.000  O
  O253     1.0000 0.57359  0.82127  0.75843  Biso   1.000  O
  O254     1.0000 0.52652  0.80482  0.67149  Biso   1.000  O
  O255     1.0000 0.41273  0.78268  0.80006  Biso   1.000  O
  O256     1.0000 0.45751  0.69486  0.78177  Biso   1.000  O
  O257     1.0000 0.49580  0.79564  0.20705  Biso   1.000  O
  O258     1.0000 0.44780  0.80995  0.18219  Biso   1.000  O
  O259     1.0000 0.44705  0.84956  0.14362  Biso   1.000  O
  O260     1.0000 0.49444  0.87484  0.12829  Biso   1.000  O
  O261     1.0000 0.54204  0.86006  0.15254  Biso   1.000  O
  O262     1.0000 0.54262  0.82130  0.19201  Biso   1.000  O
  O263     1.0000 0.49639  0.75402  0.24848  Biso   1.000  O
  O264     1.0000 0.52062  0.76321  0.29751  Biso   1.000  O
  O265     1.0000 0.52010  0.72438  0.33692  Biso   1.000  O
  O266     1.0000 0.49643  0.67504  0.32770  Biso   1.000  O
  O267     1.0000 0.47240  0.66562  0.27832  Biso   1.000  O
  O268     1.0000 0.47186  0.70487  0.23939  Biso   1.000  O
  O269     1.0000 0.40994  0.86037  0.12542  Biso   1.000  O
  O270     1.0000 0.57865  0.87891  0.14114  Biso   1.000  O
  O271     1.0000 0.53869  0.73277  0.37446  Biso   1.000  O
  O272     1.0000 0.45360  0.62813  0.27010  Biso   1.000  O
  O273     1.0000 0.57978  0.81077  0.21030  Biso   1.000  O
  O274     1.0000 0.53919  0.80083  0.30562  Biso   1.000  O
  O275     1.0000 0.41114  0.79100  0.19323  Biso   1.000  O
  O276     1.0000 0.45313  0.69669  0.20186  Biso   1.000  O
  O277     1.0000 0.48704  0.22987  0.20637  Biso   1.000  O
  O278     1.0000 0.45788  0.18307  0.21260  Biso   1.000  O
  O279     1.0000 0.45863  0.14375  0.17372  Biso   1.000  O
  O280     1.0000 0.48874  0.14977  0.12728  Biso   1.000  O
  O281     1.0000 0.51783  0.19711  0.12088  Biso   1.000  O
  O282     1.0000 0.51708  0.23640  0.15981  Biso   1.000  O
  O283     1.0000 0.48690  0.27151  0.24829  Biso   1.000  O
  O284     1.0000 0.48710  0.32540  0.23492  Biso   1.000  O
  O285     1.0000 0.48762  0.36438  0.27416  Biso   1.000  O
  O286     1.0000 0.48797  0.35066  0.32801  Biso   1.000  O
  O287     1.0000 0.48745  0.29674  0.34138  Biso   1.000  O
  O288     1.0000 0.48692  0.25777  0.30211  Biso   1.000  O
  O289     1.0000 0.43460  0.10889  0.17959  Biso   1.000  O
  O290     1.0000 0.54222  0.20315  0.08631  Biso   1.000  O
  O291     1.0000 0.48778  0.40538  0.26214  Biso   1.000  O
  O292     1.0000 0.48778  0.28448  0.38230  Biso   1.000  O
  O293     1.0000 0.54068  0.27150  0.15388  Biso   1.000  O
  O294     1.0000 0.48629  0.33757  0.19399  Biso   1.000  O
  O295     1.0000 0.43372  0.17708  0.24732  Biso   1.000  O
  O296     1.0000 0.48747  0.21675  0.31399  Biso   1.000  O
  O297     1.0000 0.49492  0.23040  0.77488  Biso   1.000  O
  O298     1.0000 0.45675  0.18957  0.77395  Biso   1.000  O
  O299     1.0000 0.45662  0.15032  0.81291  Biso   1.000  O
  O300     1.0000 0.49504  0.15056  0.85336  Biso   1.000  O
  O301     1.0000 0.53237  0.19150  0.85470  Biso   1.000  O
  O302     1.0000 0.53227  0.23102  0.81598  Biso   1.000  O
  O303     1.0000 0.49533  0.27198  0.73305  Biso   1.000  O
  O304     1.0000 0.50429  0.32523  0.74591  Biso   1.000  O
  O305     1.0000 0.50424  0.36424  0.70668  Biso   1.000  O
  O306     1.0000 0.49562  0.35105  0.65341  Biso   1.000  O
  O307     1.0000 0.48658  0.29767  0.64054  Biso   1.000  O
  O308     1.0000 0.48623  0.25875  0.67983  Biso   1.000  O
  O309     1.0000 0.42703  0.11952  0.81144  Biso   1.000  O
  O310     1.0000 0.56190  0.19256  0.88555  Biso   1.000  O
  O311     1.0000 0.51102  0.40482  0.71820  Biso   1.000  O
  O312     1.0000 0.47981  0.28588  0.60004  Biso   1.000  O
  O313     1.0000 0.56207  0.26157  0.81767  Biso   1.000  O
  O314     1.0000 0.51055  0.33688  0.78652  Biso   1.000  O
  O315     1.0000 0.42693  0.18833  0.74338  Biso   1.000  O
  O316     1.0000 0.47986  0.21808  0.66842  Biso   1.000  O
  O317     1.0000 0.77749  0.51055  0.77378  Biso   1.000  O
  O318     1.0000 0.82646  0.53562  0.76466  Biso   1.000  O
  O319     1.0000 0.86554  0.53658  0.80382  Biso   1.000  O
  O320     1.0000 0.85692  0.51281  0.85369  Biso   1.000  O
  O321     1.0000 0.80788  0.48789  0.86242  Biso   1.000  O
  O322     1.0000 0.76894  0.48677  0.82318  Biso   1.000  O
  O323     1.0000 0.73550  0.50993  0.73212  Biso   1.000  O
  O324     1.0000 0.68183  0.51517  0.74567  Biso   1.000  O
  O325     1.0000 0.64253  0.51491  0.70673  Biso   1.000  O
  O326     1.0000 0.65568  0.50960  0.65299  Biso   1.000  O
  O327     1.0000 0.70934  0.50470  0.63941  Biso   1.000  O
  O328     1.0000 0.74862  0.50479  0.67838  Biso   1.000  O
  O329     1.0000 0.90209  0.55711  0.79554  Biso   1.000  O
  O330     1.0000 0.80000  0.46780  0.89930  Biso   1.000  O
  O331     1.0000 0.60177  0.51903  0.71885  Biso   1.000  O
  O332     1.0000 0.72114  0.50065  0.59855  Biso   1.000  O
  O333     1.0000 0.73233  0.46636  0.83136  Biso   1.000  O
  O334     1.0000 0.67010  0.52003  0.78644  Biso   1.000  O
  O335     1.0000 0.83431  0.55518  0.72753  Biso   1.000  O
  O336     1.0000 0.78934  0.50018  0.66634  Biso   1.000  O
  O337     1.0000 0.20898  0.51678  0.77452  Biso   1.000  O
  O338     1.0000 0.15913  0.53948  0.76553  Biso   1.000  O
  O339     1.0000 0.12005  0.53877  0.80469  Biso   1.000  O
  O340     1.0000 0.12949  0.51554  0.85444  Biso   1.000  O
  O341     1.0000 0.17955  0.49213  0.86310  Biso   1.000  O
  O342     1.0000 0.21852  0.49273  0.82387  Biso   1.000  O
  O343     1.0000 0.25076  0.51744  0.73266  Biso   1.000  O
  O344     1.0000 0.30433  0.52406  0.74587  Biso   1.000  O
  O345     1.0000 0.34348  0.52404  0.70677  Biso   1.000  O
  O346     1.0000 0.33025  0.51755  0.65322  Biso   1.000  O
  O347     1.0000 0.27667  0.51078  0.63994  Biso   1.000  O
  O348     1.0000 0.23755  0.51065  0.67907  Biso   1.000  O
  O349     1.0000 0.08278  0.55800  0.79647  Biso   1.000  O
  O350     1.0000 0.18825  0.47221  0.89989  Biso   1.000  O
  O351     1.0000 0.38419  0.52933  0.71860  Biso   1.000  O
  O352     1.0000 0.26484  0.50535  0.59925  Biso   1.000  O
  O353     1.0000 0.25591  0.47375  0.83195  Biso   1.000  O
  O354     1.0000 0.31606  0.52989  0.78651  Biso   1.000  O
  O355     1.0000 0.15051  0.55882  0.72844  Biso   1.000  O
  O356     1.0000 0.19693  0.50466  0.66731  Biso   1.000  O
  O357     1.0000 0.20879  0.51027  0.20689  Biso   1.000  O
  O358     1.0000 0.21787  0.48687  0.15738  Biso   1.000  O
  O359     1.0000 0.17894  0.48737  0.11810  Biso   1.000  O
  O360     1.0000 0.12933  0.51109  0.12698  Biso   1.000  O
  O361     1.0000 0.12038  0.53488  0.17677  Biso   1.000  O
  O362     1.0000 0.15943  0.53455  0.21595  Biso   1.000  O
  O363     1.0000 0.25059  0.51008  0.24871  Biso   1.000  O
  O364     1.0000 0.23734  0.50435  0.30235  Biso   1.000  O
  O365     1.0000 0.27647  0.50450  0.34148  Biso   1.000  O
  O366     1.0000 0.33008  0.51021  0.32815  Biso   1.000  O
  O367     1.0000 0.34338  0.51624  0.27449  Biso   1.000  O
  O368     1.0000 0.30424  0.51627  0.23540  Biso   1.000  O
  O369     1.0000 0.18726  0.46769  0.08109  Biso   1.000  O
  O370     1.0000 0.08358  0.55496  0.18503  Biso   1.000  O
  O371     1.0000 0.26460  0.49988  0.38226  Biso   1.000  O
  O372     1.0000 0.38412  0.52108  0.26256  Biso   1.000  O
  O373     1.0000 0.15123  0.55396  0.25310  Biso   1.000  O
  O374     1.0000 0.19665  0.49904  0.31418  Biso   1.000  O
  O375     1.0000 0.25488  0.46723  0.14916  Biso   1.000  O
  O376     1.0000 0.31604  0.52163  0.19471  Biso   1.000  O
  O377     1.0000 0.77664  0.51534  0.20680  Biso   1.000  O
  O378     1.0000 0.77182  0.48222  0.16206  Biso   1.000  O
  O379     1.0000 0.81093  0.48180  0.12296  Biso   1.000  O
  O380     1.0000 0.85574  0.51465  0.12739  Biso   1.000  O
  O381     1.0000 0.86078  0.54713  0.17203  Biso   1.000  O
  O382     1.0000 0.82178  0.54744  0.21127  Biso   1.000  O
  O383     1.0000 0.73484  0.51581  0.24851  Biso   1.000  O
  O384     1.0000 0.74830  0.51889  0.30229  Biso   1.000  O
  O385     1.0000 0.70916  0.51890  0.34139  Biso   1.000  O
  O386     1.0000 0.65533  0.51601  0.32786  Biso   1.000  O
  O387     1.0000 0.64189  0.51271  0.27402  Biso   1.000  O
  O388     1.0000 0.68106  0.51253  0.23496  Biso   1.000  O
  O389     1.0000 0.80633  0.45602  0.08919  Biso   1.000  O
  O390     1.0000 0.89482  0.57260  0.17628  Biso   1.000  O
  O391     1.0000 0.72121  0.52098  0.38232  Biso   1.000  O
  O392     1.0000 0.60098  0.51052  0.26190  Biso   1.000  O
  O393     1.0000 0.82658  0.57351  0.24477  Biso   1.000  O
  O394     1.0000 0.78927  0.52041  0.31428  Biso   1.000  O
  O395     1.0000 0.73809  0.45639  0.15762  Biso   1.000  O
