data_image0
_cell_length_a       35.2288
_cell_length_b       35.2288
_cell_length_c       35.2288
_cell_angle_alpha    60
_cell_angle_beta     60
_cell_angle_gamma    60

_symmetry_space_group_name_H-M    "P 1"
_symmetry_int_tables_number       1

loop_
  _symmetry_equiv_pos_as_xyz
  'x, y, z'

loop_
  _atom_site_label
  _atom_site_occupancy
  _atom_site_fract_x
  _atom_site_fract_y
  _atom_site_fract_z
  _atom_site_thermal_displace_type
  _atom_site_B_iso_or_equiv
  _atom_site_type_symbol
  C1       1.0000 0.55945  0.03287  0.44055  Biso   1.000  C
  C2       1.0000 0.03287  0.55945  0.96713  Biso   1.000  C
  C3       1.0000 0.44055  0.96713  0.55945  Biso   1.000  C
  C4       1.0000 0.96713  0.44055  0.03287  Biso   1.000  C
  C5       1.0000 0.55945  0.44055  0.96713  Biso   1.000  C
  C6       1.0000 0.03287  0.96713  0.44055  Biso   1.000  C
  C7       1.0000 0.44055  0.55945  0.03287  Biso   1.000  C
  C8       1.0000 0.96713  0.03287  0.55945  Biso   1.000  C
  C9       1.0000 0.55945  0.96713  0.03287  Biso   1.000  C
  C10      1.0000 0.03287  0.44055  0.55945  Biso   1.000  C
  C11      1.0000 0.44055  0.03287  0.96713  Biso   1.000  C
  C12      1.0000 0.96713  0.55945  0.44055  Biso   1.000  C
  C13      1.0000 0.46713  0.94055  0.05945  Biso   1.000  C
  C14      1.0000 0.94055  0.46713  0.53287  Biso   1.000  C
  C15      1.0000 0.53287  0.05945  0.94055  Biso   1.000  C
  C16      1.0000 0.05945  0.53287  0.46713  Biso   1.000  C
  C17      1.0000 0.05945  0.94055  0.53287  Biso   1.000  C
  C18      1.0000 0.53287  0.46713  0.05945  Biso   1.000  C
  C19      1.0000 0.94055  0.05945  0.46713  Biso   1.000  C
  C20      1.0000 0.46713  0.53287  0.94055  Biso   1.000  C
  C21      1.0000 0.53287  0.94055  0.46713  Biso   1.000  C
  C22      1.0000 0.05945  0.46713  0.94055  Biso   1.000  C
  C23      1.0000 0.46713  0.05945  0.53287  Biso   1.000  C
  C24      1.0000 0.94055  0.53287  0.05945  Biso   1.000  C
  C25      1.0000 0.52430  0.18050  0.34950  Biso   1.000  C
  C26      1.0000 0.40760  0.18040  0.46240  Biso   1.000  C
  C27      1.0000 0.48670  0.25850  0.30910  Biso   1.000  C
  C28      1.0000 0.37560  0.28260  0.46600  Biso   1.000  C
  C29      1.0000 0.35880  0.23820  0.49700  Biso   1.000  C
  C30      1.0000 0.32150  0.28930  0.48730  Biso   1.000  C
  C31      1.0000 0.32480  0.24280  0.41480  Biso   1.000  C
  C32      1.0000 0.29000  0.26420  0.45580  Biso   1.000  C
  C33      1.0000 0.32840  0.21380  0.46580  Biso   1.000  C
  C34      1.0000 0.18050  0.52430  0.94570  Biso   1.000  C
  C35      1.0000 0.18040  0.40760  0.94960  Biso   1.000  C
  C36      1.0000 0.25850  0.48670  0.94570  Biso   1.000  C
  C37      1.0000 0.28260  0.37560  0.87580  Biso   1.000  C
  C38      1.0000 0.23820  0.35880  0.90600  Biso   1.000  C
  C39      1.0000 0.28930  0.32150  0.90190  Biso   1.000  C
  C40      1.0000 0.24280  0.32480  0.01760  Biso   1.000  C
  C41      1.0000 0.26420  0.29000  0.99000  Biso   1.000  C
  C42      1.0000 0.21380  0.32840  0.99200  Biso   1.000  C
  C43      1.0000 0.34950  0.94570  0.52430  Biso   1.000  C
  C44      1.0000 0.46240  0.94960  0.40760  Biso   1.000  C
  C45      1.0000 0.30910  0.94570  0.48670  Biso   1.000  C
  C46      1.0000 0.46600  0.87580  0.37560  Biso   1.000  C
  C47      1.0000 0.49700  0.90600  0.35880  Biso   1.000  C
  C48      1.0000 0.48730  0.90190  0.32150  Biso   1.000  C
  C49      1.0000 0.41480  0.01760  0.32480  Biso   1.000  C
  C50      1.0000 0.45580  0.99000  0.29000  Biso   1.000  C
  C51      1.0000 0.46580  0.99200  0.32840  Biso   1.000  C
  C52      1.0000 0.94570  0.34950  0.18050  Biso   1.000  C
  C53      1.0000 0.94960  0.46240  0.18040  Biso   1.000  C
  C54      1.0000 0.94570  0.30910  0.25850  Biso   1.000  C
  C55      1.0000 0.87580  0.46600  0.28260  Biso   1.000  C
  C56      1.0000 0.90600  0.49700  0.23820  Biso   1.000  C
  C57      1.0000 0.90190  0.48730  0.28930  Biso   1.000  C
  C58      1.0000 0.01760  0.41480  0.24280  Biso   1.000  C
  C59      1.0000 0.99000  0.45580  0.26420  Biso   1.000  C
  C60      1.0000 0.99200  0.46580  0.21380  Biso   1.000  C
  C61      1.0000 0.52430  0.34950  0.94570  Biso   1.000  C
  C62      1.0000 0.40760  0.46240  0.94960  Biso   1.000  C
  C63      1.0000 0.48670  0.30910  0.94570  Biso   1.000  C
  C64      1.0000 0.37560  0.46600  0.87580  Biso   1.000  C
  C65      1.0000 0.35880  0.49700  0.90600  Biso   1.000  C
  C66      1.0000 0.32150  0.48730  0.90190  Biso   1.000  C
  C67      1.0000 0.32480  0.41480  0.01760  Biso   1.000  C
  C68      1.0000 0.29000  0.45580  0.99000  Biso   1.000  C
  C69      1.0000 0.32840  0.46580  0.99200  Biso   1.000  C
  C70      1.0000 0.18050  0.94570  0.34950  Biso   1.000  C
  C71      1.0000 0.18040  0.94960  0.46240  Biso   1.000  C
  C72      1.0000 0.25850  0.94570  0.30910  Biso   1.000  C
  C73      1.0000 0.28260  0.87580  0.46600  Biso   1.000  C
  C74      1.0000 0.23820  0.90600  0.49700  Biso   1.000  C
  C75      1.0000 0.28930  0.90190  0.48730  Biso   1.000  C
  C76      1.0000 0.24280  0.01760  0.41480  Biso   1.000  C
  C77      1.0000 0.26420  0.99000  0.45580  Biso   1.000  C
  C78      1.0000 0.21380  0.99200  0.46580  Biso   1.000  C
  C79      1.0000 0.34950  0.52430  0.18050  Biso   1.000  C
  C80      1.0000 0.46240  0.40760  0.18040  Biso   1.000  C
  C81      1.0000 0.30910  0.48670  0.25850  Biso   1.000  C
  C82      1.0000 0.46600  0.37560  0.28260  Biso   1.000  C
  C83      1.0000 0.49700  0.35880  0.23820  Biso   1.000  C
  C84      1.0000 0.48730  0.32150  0.28930  Biso   1.000  C
  C85      1.0000 0.41480  0.32480  0.24280  Biso   1.000  C
  C86      1.0000 0.45580  0.29000  0.26420  Biso   1.000  C
  C87      1.0000 0.46580  0.32840  0.21380  Biso   1.000  C
  C88      1.0000 0.94570  0.18050  0.52430  Biso   1.000  C
  C89      1.0000 0.94960  0.18040  0.40760  Biso   1.000  C
  C90      1.0000 0.94570  0.25850  0.48670  Biso   1.000  C
  C91      1.0000 0.87580  0.28260  0.37560  Biso   1.000  C
  C92      1.0000 0.90600  0.23820  0.35880  Biso   1.000  C
  C93      1.0000 0.90190  0.28930  0.32150  Biso   1.000  C
  C94      1.0000 0.01760  0.24280  0.32480  Biso   1.000  C
  C95      1.0000 0.99000  0.26420  0.29000  Biso   1.000  C
  C96      1.0000 0.99200  0.21380  0.32840  Biso   1.000  C
  C97      1.0000 0.52430  0.94570  0.18050  Biso   1.000  C
  C98      1.0000 0.40760  0.94960  0.18040  Biso   1.000  C
  C99      1.0000 0.48670  0.94570  0.25850  Biso   1.000  C
  C100     1.0000 0.37560  0.87580  0.28260  Biso   1.000  C
  C101     1.0000 0.35880  0.90600  0.23820  Biso   1.000  C
  C102     1.0000 0.32150  0.90190  0.28930  Biso   1.000  C
  C103     1.0000 0.32480  0.01760  0.24280  Biso   1.000  C
  C104     1.0000 0.29000  0.99000  0.26420  Biso   1.000  C
  C105     1.0000 0.32840  0.99200  0.21380  Biso   1.000  C
  C106     1.0000 0.18050  0.34950  0.52430  Biso   1.000  C
  C107     1.0000 0.18040  0.46240  0.40760  Biso   1.000  C
  C108     1.0000 0.25850  0.30910  0.48670  Biso   1.000  C
  C109     1.0000 0.28260  0.46600  0.37560  Biso   1.000  C
  C110     1.0000 0.23820  0.49700  0.35880  Biso   1.000  C
  C111     1.0000 0.28930  0.48730  0.32150  Biso   1.000  C
  C112     1.0000 0.24280  0.41480  0.32480  Biso   1.000  C
  C113     1.0000 0.26420  0.45580  0.29000  Biso   1.000  C
  C114     1.0000 0.21380  0.46580  0.32840  Biso   1.000  C
  C115     1.0000 0.34950  0.18050  0.94570  Biso   1.000  C
  C116     1.0000 0.46240  0.18040  0.94960  Biso   1.000  C
  C117     1.0000 0.30910  0.25850  0.94570  Biso   1.000  C
  C118     1.0000 0.46600  0.28260  0.87580  Biso   1.000  C
  C119     1.0000 0.49700  0.23820  0.90600  Biso   1.000  C
  C120     1.0000 0.48730  0.28930  0.90190  Biso   1.000  C
  C121     1.0000 0.41480  0.24280  0.01760  Biso   1.000  C
  C122     1.0000 0.45580  0.26420  0.99000  Biso   1.000  C
  C123     1.0000 0.46580  0.21380  0.99200  Biso   1.000  C
  C124     1.0000 0.94570  0.52430  0.34950  Biso   1.000  C
  C125     1.0000 0.94960  0.40760  0.46240  Biso   1.000  C
  C126     1.0000 0.94570  0.48670  0.30910  Biso   1.000  C
  C127     1.0000 0.87580  0.37560  0.46600  Biso   1.000  C
  C128     1.0000 0.90600  0.35880  0.49700  Biso   1.000  C
  C129     1.0000 0.90190  0.32150  0.48730  Biso   1.000  C
  C130     1.0000 0.01760  0.32480  0.41480  Biso   1.000  C
  C131     1.0000 0.99000  0.29000  0.45580  Biso   1.000  C
  C132     1.0000 0.99200  0.32840  0.46580  Biso   1.000  C
  C133     1.0000 0.31950  0.97570  0.15050  Biso   1.000  C
  C134     1.0000 0.31960  0.09240  0.03760  Biso   1.000  C
  C135     1.0000 0.24150  0.01330  0.19090  Biso   1.000  C
  C136     1.0000 0.21740  0.12440  0.03400  Biso   1.000  C
  C137     1.0000 0.26180  0.14120  0.00300  Biso   1.000  C
  C138     1.0000 0.21070  0.17850  0.01270  Biso   1.000  C
  C139     1.0000 0.25720  0.17520  0.08520  Biso   1.000  C
  C140     1.0000 0.23580  0.21000  0.04420  Biso   1.000  C
  C141     1.0000 0.28620  0.17160  0.03420  Biso   1.000  C
  C142     1.0000 0.97570  0.31950  0.55430  Biso   1.000  C
  C143     1.0000 0.09240  0.31960  0.55040  Biso   1.000  C
  C144     1.0000 0.01330  0.24150  0.55430  Biso   1.000  C
  C145     1.0000 0.12440  0.21740  0.62420  Biso   1.000  C
  C146     1.0000 0.14120  0.26180  0.59400  Biso   1.000  C
  C147     1.0000 0.17850  0.21070  0.59810  Biso   1.000  C
  C148     1.0000 0.17520  0.25720  0.48240  Biso   1.000  C
  C149     1.0000 0.21000  0.23580  0.51000  Biso   1.000  C
  C150     1.0000 0.17160  0.28620  0.50800  Biso   1.000  C
  C151     1.0000 0.55430  0.15050  0.97570  Biso   1.000  C
  C152     1.0000 0.55040  0.03760  0.09240  Biso   1.000  C
  C153     1.0000 0.55430  0.19090  0.01330  Biso   1.000  C
  C154     1.0000 0.62420  0.03400  0.12440  Biso   1.000  C
  C155     1.0000 0.59400  0.00300  0.14120  Biso   1.000  C
  C156     1.0000 0.59810  0.01270  0.17850  Biso   1.000  C
  C157     1.0000 0.48240  0.08520  0.17520  Biso   1.000  C
  C158     1.0000 0.51000  0.04420  0.21000  Biso   1.000  C
  C159     1.0000 0.50800  0.03420  0.17160  Biso   1.000  C
  C160     1.0000 0.15050  0.55430  0.31950  Biso   1.000  C
  C161     1.0000 0.03760  0.55040  0.31960  Biso   1.000  C
  C162     1.0000 0.19090  0.55430  0.24150  Biso   1.000  C
  C163     1.0000 0.03400  0.62420  0.21740  Biso   1.000  C
  C164     1.0000 0.00300  0.59400  0.26180  Biso   1.000  C
  C165     1.0000 0.01270  0.59810  0.21070  Biso   1.000  C
  C166     1.0000 0.08520  0.48240  0.25720  Biso   1.000  C
  C167     1.0000 0.04420  0.51000  0.23580  Biso   1.000  C
  C168     1.0000 0.03420  0.50800  0.28620  Biso   1.000  C
  C169     1.0000 0.15050  0.97570  0.55430  Biso   1.000  C
  C170     1.0000 0.03760  0.09240  0.55040  Biso   1.000  C
  C171     1.0000 0.19090  0.01330  0.55430  Biso   1.000  C
  C172     1.0000 0.03400  0.12440  0.62420  Biso   1.000  C
  C173     1.0000 0.00300  0.14120  0.59400  Biso   1.000  C
  C174     1.0000 0.01270  0.17850  0.59810  Biso   1.000  C
  C175     1.0000 0.08520  0.17520  0.48240  Biso   1.000  C
  C176     1.0000 0.04420  0.21000  0.51000  Biso   1.000  C
  C177     1.0000 0.03420  0.17160  0.50800  Biso   1.000  C
  C178     1.0000 0.55430  0.31950  0.15050  Biso   1.000  C
  C179     1.0000 0.55040  0.31960  0.03760  Biso   1.000  C
  C180     1.0000 0.55430  0.24150  0.19090  Biso   1.000  C
  C181     1.0000 0.62420  0.21740  0.03400  Biso   1.000  C
  C182     1.0000 0.59400  0.26180  0.00300  Biso   1.000  C
  C183     1.0000 0.59810  0.21070  0.01270  Biso   1.000  C
  C184     1.0000 0.48240  0.25720  0.08520  Biso   1.000  C
  C185     1.0000 0.51000  0.23580  0.04420  Biso   1.000  C
  C186     1.0000 0.50800  0.28620  0.03420  Biso   1.000  C
  C187     1.0000 0.97570  0.15050  0.31950  Biso   1.000  C
  C188     1.0000 0.09240  0.03760  0.31960  Biso   1.000  C
  C189     1.0000 0.01330  0.19090  0.24150  Biso   1.000  C
  C190     1.0000 0.12440  0.03400  0.21740  Biso   1.000  C
  C191     1.0000 0.14120  0.00300  0.26180  Biso   1.000  C
  C192     1.0000 0.17850  0.01270  0.21070  Biso   1.000  C
  C193     1.0000 0.17520  0.08520  0.25720  Biso   1.000  C
  C194     1.0000 0.21000  0.04420  0.23580  Biso   1.000  C
  C195     1.0000 0.17160  0.03420  0.28620  Biso   1.000  C
  C196     1.0000 0.31950  0.55430  0.97570  Biso   1.000  C
  C197     1.0000 0.31960  0.55040  0.09240  Biso   1.000  C
  C198     1.0000 0.24150  0.55430  0.01330  Biso   1.000  C
  C199     1.0000 0.21740  0.62420  0.12440  Biso   1.000  C
  C200     1.0000 0.26180  0.59400  0.14120  Biso   1.000  C
  C201     1.0000 0.21070  0.59810  0.17850  Biso   1.000  C
  C202     1.0000 0.25720  0.48240  0.17520  Biso   1.000  C
  C203     1.0000 0.23580  0.51000  0.21000  Biso   1.000  C
  C204     1.0000 0.28620  0.50800  0.17160  Biso   1.000  C
  C205     1.0000 0.55430  0.97570  0.31950  Biso   1.000  C
  C206     1.0000 0.55040  0.09240  0.31960  Biso   1.000  C
  C207     1.0000 0.55430  0.01330  0.24150  Biso   1.000  C
  C208     1.0000 0.62420  0.12440  0.21740  Biso   1.000  C
  C209     1.0000 0.59400  0.14120  0.26180  Biso   1.000  C
  C210     1.0000 0.59810  0.17850  0.21070  Biso   1.000  C
  C211     1.0000 0.48240  0.17520  0.25720  Biso   1.000  C
  C212     1.0000 0.51000  0.21000  0.23580  Biso   1.000  C
  C213     1.0000 0.50800  0.17160  0.28620  Biso   1.000  C
  C214     1.0000 0.15050  0.31950  0.97570  Biso   1.000  C
  C215     1.0000 0.03760  0.31960  0.09240  Biso   1.000  C
  C216     1.0000 0.19090  0.24150  0.01330  Biso   1.000  C
  C217     1.0000 0.03400  0.21740  0.12440  Biso   1.000  C
  C218     1.0000 0.00300  0.26180  0.14120  Biso   1.000  C
  C219     1.0000 0.01270  0.21070  0.17850  Biso   1.000  C
  C220     1.0000 0.08520  0.25720  0.17520  Biso   1.000  C
  C221     1.0000 0.04420  0.23580  0.21000  Biso   1.000  C
  C222     1.0000 0.03420  0.28620  0.17160  Biso   1.000  C
  C223     1.0000 0.31950  0.15050  0.55430  Biso   1.000  C
  C224     1.0000 0.31960  0.03760  0.55040  Biso   1.000  C
  C225     1.0000 0.24150  0.19090  0.55430  Biso   1.000  C
  C226     1.0000 0.21740  0.03400  0.62420  Biso   1.000  C
  C227     1.0000 0.26180  0.00300  0.59400  Biso   1.000  C
  C228     1.0000 0.21070  0.01270  0.59810  Biso   1.000  C
  C229     1.0000 0.25720  0.08520  0.48240  Biso   1.000  C
  C230     1.0000 0.23580  0.04420  0.51000  Biso   1.000  C
  C231     1.0000 0.28620  0.03420  0.50800  Biso   1.000  C
  C232     1.0000 0.97570  0.55430  0.15050  Biso   1.000  C
  C233     1.0000 0.09240  0.55040  0.03760  Biso   1.000  C
  C234     1.0000 0.01330  0.55430  0.19090  Biso   1.000  C
  C235     1.0000 0.12440  0.62420  0.03400  Biso   1.000  C
  C236     1.0000 0.14120  0.59400  0.00300  Biso   1.000  C
  C237     1.0000 0.17850  0.59810  0.01270  Biso   1.000  C
  C238     1.0000 0.17520  0.48240  0.08520  Biso   1.000  C
  C239     1.0000 0.21000  0.51000  0.04420  Biso   1.000  C
  C240     1.0000 0.17160  0.50800  0.03420  Biso   1.000  C
  C241     1.0000 0.47570  0.81950  0.65050  Biso   1.000  C
  C242     1.0000 0.59240  0.81960  0.53760  Biso   1.000  C
  C243     1.0000 0.51330  0.74150  0.69090  Biso   1.000  C
  C244     1.0000 0.62440  0.71740  0.53400  Biso   1.000  C
  C245     1.0000 0.64120  0.76180  0.50300  Biso   1.000  C
  C246     1.0000 0.67850  0.71070  0.51270  Biso   1.000  C
  C247     1.0000 0.67520  0.75720  0.58520  Biso   1.000  C
  C248     1.0000 0.71000  0.73580  0.54420  Biso   1.000  C
  C249     1.0000 0.67160  0.78620  0.53420  Biso   1.000  C
  C250     1.0000 0.81950  0.47570  0.05430  Biso   1.000  C
  C251     1.0000 0.81960  0.59240  0.05040  Biso   1.000  C
  C252     1.0000 0.74150  0.51330  0.05430  Biso   1.000  C
  C253     1.0000 0.71740  0.62440  0.12420  Biso   1.000  C
  C254     1.0000 0.76180  0.64120  0.09400  Biso   1.000  C
  C255     1.0000 0.71070  0.67850  0.09810  Biso   1.000  C
  C256     1.0000 0.75720  0.67520  0.98240  Biso   1.000  C
  C257     1.0000 0.73580  0.71000  0.01000  Biso   1.000  C
  C258     1.0000 0.78620  0.67160  0.00800  Biso   1.000  C
  C259     1.0000 0.65050  0.05430  0.47570  Biso   1.000  C
  C260     1.0000 0.53760  0.05040  0.59240  Biso   1.000  C
  C261     1.0000 0.69090  0.05430  0.51330  Biso   1.000  C
  C262     1.0000 0.53400  0.12420  0.62440  Biso   1.000  C
  C263     1.0000 0.50300  0.09400  0.64120  Biso   1.000  C
  C264     1.0000 0.51270  0.09810  0.67850  Biso   1.000  C
  C265     1.0000 0.58520  0.98240  0.67520  Biso   1.000  C
  C266     1.0000 0.54420  0.01000  0.71000  Biso   1.000  C
  C267     1.0000 0.53420  0.00800  0.67160  Biso   1.000  C
  C268     1.0000 0.05430  0.65050  0.81950  Biso   1.000  C
  C269     1.0000 0.05040  0.53760  0.81960  Biso   1.000  C
  C270     1.0000 0.05430  0.69090  0.74150  Biso   1.000  C
  C271     1.0000 0.12420  0.53400  0.71740  Biso   1.000  C
  C272     1.0000 0.09400  0.50300  0.76180  Biso   1.000  C
  C273     1.0000 0.09810  0.51270  0.71070  Biso   1.000  C
  C274     1.0000 0.98240  0.58520  0.75720  Biso   1.000  C
  C275     1.0000 0.01000  0.54420  0.73580  Biso   1.000  C
  C276     1.0000 0.00800  0.53420  0.78620  Biso   1.000  C
  C277     1.0000 0.47570  0.65050  0.05430  Biso   1.000  C
  C278     1.0000 0.59240  0.53760  0.05040  Biso   1.000  C
  C279     1.0000 0.51330  0.69090  0.05430  Biso   1.000  C
  C280     1.0000 0.62440  0.53400  0.12420  Biso   1.000  C
  C281     1.0000 0.64120  0.50300  0.09400  Biso   1.000  C
  C282     1.0000 0.67850  0.51270  0.09810  Biso   1.000  C
  C283     1.0000 0.67520  0.58520  0.98240  Biso   1.000  C
  C284     1.0000 0.71000  0.54420  0.01000  Biso   1.000  C
  C285     1.0000 0.67160  0.53420  0.00800  Biso   1.000  C
  C286     1.0000 0.81950  0.05430  0.65050  Biso   1.000  C
  C287     1.0000 0.81960  0.05040  0.53760  Biso   1.000  C
  C288     1.0000 0.74150  0.05430  0.69090  Biso   1.000  C
  C289     1.0000 0.71740  0.12420  0.53400  Biso   1.000  C
  C290     1.0000 0.76180  0.09400  0.50300  Biso   1.000  C
  C291     1.0000 0.71070  0.09810  0.51270  Biso   1.000  C
  C292     1.0000 0.75720  0.98240  0.58520  Biso   1.000  C
  C293     1.0000 0.73580  0.01000  0.54420  Biso   1.000  C
  C294     1.0000 0.78620  0.00800  0.53420  Biso   1.000  C
  C295     1.0000 0.65050  0.47570  0.81950  Biso   1.000  C
  C296     1.0000 0.53760  0.59240  0.81960  Biso   1.000  C
  C297     1.0000 0.69090  0.51330  0.74150  Biso   1.000  C
  C298     1.0000 0.53400  0.62440  0.71740  Biso   1.000  C
  C299     1.0000 0.50300  0.64120  0.76180  Biso   1.000  C
  C300     1.0000 0.51270  0.67850  0.71070  Biso   1.000  C
  C301     1.0000 0.58520  0.67520  0.75720  Biso   1.000  C
  C302     1.0000 0.54420  0.71000  0.73580  Biso   1.000  C
  C303     1.0000 0.53420  0.67160  0.78620  Biso   1.000  C
  C304     1.0000 0.05430  0.81950  0.47570  Biso   1.000  C
  C305     1.0000 0.05040  0.81960  0.59240  Biso   1.000  C
  C306     1.0000 0.05430  0.74150  0.51330  Biso   1.000  C
  C307     1.0000 0.12420  0.71740  0.62440  Biso   1.000  C
  C308     1.0000 0.09400  0.76180  0.64120  Biso   1.000  C
  C309     1.0000 0.09810  0.71070  0.67850  Biso   1.000  C
  C310     1.0000 0.98240  0.75720  0.67520  Biso   1.000  C
  C311     1.0000 0.01000  0.73580  0.71000  Biso   1.000  C
  C312     1.0000 0.00800  0.78620  0.67160  Biso   1.000  C
  C313     1.0000 0.47570  0.05430  0.81950  Biso   1.000  C
  C314     1.0000 0.59240  0.05040  0.81960  Biso   1.000  C
  C315     1.0000 0.51330  0.05430  0.74150  Biso   1.000  C
  C316     1.0000 0.62440  0.12420  0.71740  Biso   1.000  C
  C317     1.0000 0.64120  0.09400  0.76180  Biso   1.000  C
  C318     1.0000 0.67850  0.09810  0.71070  Biso   1.000  C
  C319     1.0000 0.67520  0.98240  0.75720  Biso   1.000  C
  C320     1.0000 0.71000  0.01000  0.73580  Biso   1.000  C
  C321     1.0000 0.67160  0.00800  0.78620  Biso   1.000  C
  C322     1.0000 0.81950  0.65050  0.47570  Biso   1.000  C
  C323     1.0000 0.81960  0.53760  0.59240  Biso   1.000  C
  C324     1.0000 0.74150  0.69090  0.51330  Biso   1.000  C
  C325     1.0000 0.71740  0.53400  0.62440  Biso   1.000  C
  C326     1.0000 0.76180  0.50300  0.64120  Biso   1.000  C
  C327     1.0000 0.71070  0.51270  0.67850  Biso   1.000  C
  C328     1.0000 0.75720  0.58520  0.67520  Biso   1.000  C
  C329     1.0000 0.73580  0.54420  0.71000  Biso   1.000  C
  C330     1.0000 0.78620  0.53420  0.67160  Biso   1.000  C
  C331     1.0000 0.65050  0.81950  0.05430  Biso   1.000  C
  C332     1.0000 0.53760  0.81960  0.05040  Biso   1.000  C
  C333     1.0000 0.69090  0.74150  0.05430  Biso   1.000  C
  C334     1.0000 0.53400  0.71740  0.12420  Biso   1.000  C
  C335     1.0000 0.50300  0.76180  0.09400  Biso   1.000  C
  C336     1.0000 0.51270  0.71070  0.09810  Biso   1.000  C
  C337     1.0000 0.58520  0.75720  0.98240  Biso   1.000  C
  C338     1.0000 0.54420  0.73580  0.01000  Biso   1.000  C
  C339     1.0000 0.53420  0.78620  0.00800  Biso   1.000  C
  C340     1.0000 0.05430  0.47570  0.65050  Biso   1.000  C
  C341     1.0000 0.05040  0.59240  0.53760  Biso   1.000  C
  C342     1.0000 0.05430  0.51330  0.69090  Biso   1.000  C
  C343     1.0000 0.12420  0.62440  0.53400  Biso   1.000  C
  C344     1.0000 0.09400  0.64120  0.50300  Biso   1.000  C
  C345     1.0000 0.09810  0.67850  0.51270  Biso   1.000  C
  C346     1.0000 0.98240  0.67520  0.58520  Biso   1.000  C
  C347     1.0000 0.01000  0.71000  0.54420  Biso   1.000  C
  C348     1.0000 0.00800  0.67160  0.53420  Biso   1.000  C
  C349     1.0000 0.68050  0.02430  0.84950  Biso   1.000  C
  C350     1.0000 0.68040  0.90760  0.96240  Biso   1.000  C
  C351     1.0000 0.75850  0.98670  0.80910  Biso   1.000  C
  C352     1.0000 0.78260  0.87560  0.96600  Biso   1.000  C
  C353     1.0000 0.73820  0.85880  0.99700  Biso   1.000  C
  C354     1.0000 0.78930  0.82150  0.98730  Biso   1.000  C
  C355     1.0000 0.74280  0.82480  0.91480  Biso   1.000  C
  C356     1.0000 0.76420  0.79000  0.95580  Biso   1.000  C
  C357     1.0000 0.71380  0.82840  0.96580  Biso   1.000  C
  C358     1.0000 0.02430  0.68050  0.44570  Biso   1.000  C
  C359     1.0000 0.90760  0.68040  0.44960  Biso   1.000  C
  C360     1.0000 0.98670  0.75850  0.44570  Biso   1.000  C
  C361     1.0000 0.87560  0.78260  0.37580  Biso   1.000  C
  C362     1.0000 0.85880  0.73820  0.40600  Biso   1.000  C
  C363     1.0000 0.82150  0.78930  0.40190  Biso   1.000  C
  C364     1.0000 0.82480  0.74280  0.51760  Biso   1.000  C
  C365     1.0000 0.79000  0.76420  0.49000  Biso   1.000  C
  C366     1.0000 0.82840  0.71380  0.49200  Biso   1.000  C
  C367     1.0000 0.44570  0.84950  0.02430  Biso   1.000  C
  C368     1.0000 0.44960  0.96240  0.90760  Biso   1.000  C
  C369     1.0000 0.44570  0.80910  0.98670  Biso   1.000  C
  C370     1.0000 0.37580  0.96600  0.87560  Biso   1.000  C
  C371     1.0000 0.40600  0.99700  0.85880  Biso   1.000  C
  C372     1.0000 0.40190  0.98730  0.82150  Biso   1.000  C
  C373     1.0000 0.51760  0.91480  0.82480  Biso   1.000  C
  C374     1.0000 0.49000  0.95580  0.79000  Biso   1.000  C
  C375     1.0000 0.49200  0.96580  0.82840  Biso   1.000  C
  C376     1.0000 0.84950  0.44570  0.68050  Biso   1.000  C
  C377     1.0000 0.96240  0.44960  0.68040  Biso   1.000  C
  C378     1.0000 0.80910  0.44570  0.75850  Biso   1.000  C
  C379     1.0000 0.96600  0.37580  0.78260  Biso   1.000  C
  C380     1.0000 0.99700  0.40600  0.73820  Biso   1.000  C
  C381     1.0000 0.98730  0.40190  0.78930  Biso   1.000  C
  C382     1.0000 0.91480  0.51760  0.74280  Biso   1.000  C
  C383     1.0000 0.95580  0.49000  0.76420  Biso   1.000  C
  C384     1.0000 0.96580  0.49200  0.71380  Biso   1.000  C
  C385     1.0000 0.84950  0.02430  0.44570  Biso   1.000  C
  C386     1.0000 0.96240  0.90760  0.44960  Biso   1.000  C
  C387     1.0000 0.80910  0.98670  0.44570  Biso   1.000  C
  C388     1.0000 0.96600  0.87560  0.37580  Biso   1.000  C
  C389     1.0000 0.99700  0.85880  0.40600  Biso   1.000  C
  C390     1.0000 0.98730  0.82150  0.40190  Biso   1.000  C
  C391     1.0000 0.91480  0.82480  0.51760  Biso   1.000  C
  C392     1.0000 0.95580  0.79000  0.49000  Biso   1.000  C
  C393     1.0000 0.96580  0.82840  0.49200  Biso   1.000  C
  C394     1.0000 0.44570  0.68050  0.84950  Biso   1.000  C
  C395     1.0000 0.44960  0.68040  0.96240  Biso   1.000  C
  C396     1.0000 0.44570  0.75850  0.80910  Biso   1.000  C
  C397     1.0000 0.37580  0.78260  0.96600  Biso   1.000  C
  C398     1.0000 0.40600  0.73820  0.99700  Biso   1.000  C
  C399     1.0000 0.40190  0.78930  0.98730  Biso   1.000  C
  C400     1.0000 0.51760  0.74280  0.91480  Biso   1.000  C
  C401     1.0000 0.49000  0.76420  0.95580  Biso   1.000  C
  C402     1.0000 0.49200  0.71380  0.96580  Biso   1.000  C
  C403     1.0000 0.02430  0.84950  0.68050  Biso   1.000  C
  C404     1.0000 0.90760  0.96240  0.68040  Biso   1.000  C
  C405     1.0000 0.98670  0.80910  0.75850  Biso   1.000  C
  C406     1.0000 0.87560  0.96600  0.78260  Biso   1.000  C
  C407     1.0000 0.85880  0.99700  0.73820  Biso   1.000  C
  C408     1.0000 0.82150  0.98730  0.78930  Biso   1.000  C
  C409     1.0000 0.82480  0.91480  0.74280  Biso   1.000  C
  C410     1.0000 0.79000  0.95580  0.76420  Biso   1.000  C
  C411     1.0000 0.82840  0.96580  0.71380  Biso   1.000  C
  C412     1.0000 0.68050  0.44570  0.02430  Biso   1.000  C
  C413     1.0000 0.68040  0.44960  0.90760  Biso   1.000  C
  C414     1.0000 0.75850  0.44570  0.98670  Biso   1.000  C
  C415     1.0000 0.78260  0.37580  0.87560  Biso   1.000  C
  C416     1.0000 0.73820  0.40600  0.85880  Biso   1.000  C
  C417     1.0000 0.78930  0.40190  0.82150  Biso   1.000  C
  C418     1.0000 0.74280  0.51760  0.82480  Biso   1.000  C
  C419     1.0000 0.76420  0.49000  0.79000  Biso   1.000  C
  C420     1.0000 0.71380  0.49200  0.82840  Biso   1.000  C
  C421     1.0000 0.44570  0.02430  0.68050  Biso   1.000  C
  C422     1.0000 0.44960  0.90760  0.68040  Biso   1.000  C
  C423     1.0000 0.44570  0.98670  0.75850  Biso   1.000  C
  C424     1.0000 0.37580  0.87560  0.78260  Biso   1.000  C
  C425     1.0000 0.40600  0.85880  0.73820  Biso   1.000  C
  C426     1.0000 0.40190  0.82150  0.78930  Biso   1.000  C
  C427     1.0000 0.51760  0.82480  0.74280  Biso   1.000  C
  C428     1.0000 0.49000  0.79000  0.76420  Biso   1.000  C
  C429     1.0000 0.49200  0.82840  0.71380  Biso   1.000  C
  C430     1.0000 0.84950  0.68050  0.02430  Biso   1.000  C
  C431     1.0000 0.96240  0.68040  0.90760  Biso   1.000  C
  C432     1.0000 0.80910  0.75850  0.98670  Biso   1.000  C
  C433     1.0000 0.96600  0.78260  0.87560  Biso   1.000  C
  C434     1.0000 0.99700  0.73820  0.85880  Biso   1.000  C
  C435     1.0000 0.98730  0.78930  0.82150  Biso   1.000  C
  C436     1.0000 0.91480  0.74280  0.82480  Biso   1.000  C
  C437     1.0000 0.95580  0.76420  0.79000  Biso   1.000  C
  C438     1.0000 0.96580  0.71380  0.82840  Biso   1.000  C
  C439     1.0000 0.68050  0.84950  0.44570  Biso   1.000  C
  C440     1.0000 0.68040  0.96240  0.44960  Biso   1.000  C
  C441     1.0000 0.75850  0.80910  0.44570  Biso   1.000  C
  C442     1.0000 0.78260  0.96600  0.37580  Biso   1.000  C
  C443     1.0000 0.73820  0.99700  0.40600  Biso   1.000  C
  C444     1.0000 0.78930  0.98730  0.40190  Biso   1.000  C
  C445     1.0000 0.74280  0.91480  0.51760  Biso   1.000  C
  C446     1.0000 0.76420  0.95580  0.49000  Biso   1.000  C
  C447     1.0000 0.71380  0.96580  0.49200  Biso   1.000  C
  C448     1.0000 0.02430  0.44570  0.84950  Biso   1.000  C
  C449     1.0000 0.90760  0.44960  0.96240  Biso   1.000  C
  C450     1.0000 0.98670  0.44570  0.80910  Biso   1.000  C
  C451     1.0000 0.87560  0.37580  0.96600  Biso   1.000  C
  C452     1.0000 0.85880  0.40600  0.99700  Biso   1.000  C
  C453     1.0000 0.82150  0.40190  0.98730  Biso   1.000  C
  C454     1.0000 0.82480  0.51760  0.91480  Biso   1.000  C
  C455     1.0000 0.79000  0.49000  0.95580  Biso   1.000  C
  C456     1.0000 0.82840  0.49200  0.96580  Biso   1.000  C
  C457     1.0000 0.49880  0.12220  0.42760  Biso   1.000  C
  C458     1.0000 0.46810  0.17170  0.41150  Biso   1.000  C
  C459     1.0000 0.49281  0.19619  0.36419  Biso   1.000  C
  C460     1.0000 0.42400  0.19560  0.43160  Biso   1.000  C
  C461     1.0000 0.47109  0.24249  0.33991  Biso   1.000  C
  C462     1.0000 0.42520  0.26320  0.36440  Biso   1.000  C
  C463     1.0000 0.40302  0.23858  0.41078  Biso   1.000  C
  C464     1.0000 0.35578  0.26698  0.43082  Biso   1.000  C
  C465     1.0000 0.35267  0.26953  0.47407  Biso   1.000  C
  C466     1.0000 0.32177  0.24503  0.44283  Biso   1.000  C
  C467     1.0000 0.35032  0.31282  0.39198  Biso   1.000  C
  C468     1.0000 0.31020  0.35280  0.39140  Biso   1.000  C
  C469     1.0000 0.12220  0.49880  0.95140  Biso   1.000  C
  C470     1.0000 0.17170  0.46810  0.94870  Biso   1.000  C
  C471     1.0000 0.19619  0.49281  0.94681  Biso   1.000  C
  C472     1.0000 0.19560  0.42400  0.94880  Biso   1.000  C
  C473     1.0000 0.24249  0.47109  0.94651  Biso   1.000  C
  C474     1.0000 0.26320  0.42520  0.94720  Biso   1.000  C
  C475     1.0000 0.23858  0.40302  0.94762  Biso   1.000  C
  C476     1.0000 0.26698  0.35578  0.94642  Biso   1.000  C
  C477     1.0000 0.26953  0.35267  0.90373  Biso   1.000  C
  C478     1.0000 0.24503  0.32177  0.99037  Biso   1.000  C
  C479     1.0000 0.31282  0.35032  0.94488  Biso   1.000  C
  C480     1.0000 0.35280  0.31020  0.94560  Biso   1.000  C
  C481     1.0000 0.42760  0.95140  0.49880  Biso   1.000  C
  C482     1.0000 0.41150  0.94870  0.46810  Biso   1.000  C
  C483     1.0000 0.36419  0.94681  0.49281  Biso   1.000  C
  C484     1.0000 0.43160  0.94880  0.42400  Biso   1.000  C
  C485     1.0000 0.33991  0.94651  0.47109  Biso   1.000  C
  C486     1.0000 0.36440  0.94720  0.42520  Biso   1.000  C
  C487     1.0000 0.41078  0.94762  0.40302  Biso   1.000  C
  C488     1.0000 0.43082  0.94642  0.35578  Biso   1.000  C
  C489     1.0000 0.47407  0.90373  0.35267  Biso   1.000  C
  C490     1.0000 0.44283  0.99037  0.32177  Biso   1.000  C
  C491     1.0000 0.39198  0.94488  0.35032  Biso   1.000  C
  C492     1.0000 0.39140  0.94560  0.31020  Biso   1.000  C
  C493     1.0000 0.95140  0.42760  0.12220  Biso   1.000  C
  C494     1.0000 0.94870  0.41150  0.17170  Biso   1.000  C
  C495     1.0000 0.94681  0.36419  0.19619  Biso   1.000  C
  C496     1.0000 0.94880  0.43160  0.19560  Biso   1.000  C
  C497     1.0000 0.94651  0.33991  0.24249  Biso   1.000  C
  C498     1.0000 0.94720  0.36440  0.26320  Biso   1.000  C
  C499     1.0000 0.94762  0.41078  0.23858  Biso   1.000  C
  C500     1.0000 0.94642  0.43082  0.26698  Biso   1.000  C
  C501     1.0000 0.90373  0.47407  0.26953  Biso   1.000  C
  C502     1.0000 0.99037  0.44283  0.24503  Biso   1.000  C
  C503     1.0000 0.94488  0.39198  0.31282  Biso   1.000  C
  C504     1.0000 0.94560  0.39140  0.35280  Biso   1.000  C
  C505     1.0000 0.49880  0.42760  0.95140  Biso   1.000  C
  C506     1.0000 0.46810  0.41150  0.94870  Biso   1.000  C
  C507     1.0000 0.49281  0.36419  0.94681  Biso   1.000  C
  C508     1.0000 0.42400  0.43160  0.94880  Biso   1.000  C
  C509     1.0000 0.47109  0.33991  0.94651  Biso   1.000  C
  C510     1.0000 0.42520  0.36440  0.94720  Biso   1.000  C
  C511     1.0000 0.40302  0.41078  0.94762  Biso   1.000  C
  C512     1.0000 0.35578  0.43082  0.94642  Biso   1.000  C
  C513     1.0000 0.35267  0.47407  0.90373  Biso   1.000  C
  C514     1.0000 0.32177  0.44283  0.99037  Biso   1.000  C
  C515     1.0000 0.35032  0.39198  0.94488  Biso   1.000  C
  C516     1.0000 0.31020  0.39140  0.94560  Biso   1.000  C
  C517     1.0000 0.12220  0.95140  0.42760  Biso   1.000  C
  C518     1.0000 0.17170  0.94870  0.41150  Biso   1.000  C
  C519     1.0000 0.19619  0.94681  0.36419  Biso   1.000  C
  C520     1.0000 0.19560  0.94880  0.43160  Biso   1.000  C
  C521     1.0000 0.24249  0.94651  0.33991  Biso   1.000  C
  C522     1.0000 0.26320  0.94720  0.36440  Biso   1.000  C
  C523     1.0000 0.23858  0.94762  0.41078  Biso   1.000  C
  C524     1.0000 0.26698  0.94642  0.43082  Biso   1.000  C
  C525     1.0000 0.26953  0.90373  0.47407  Biso   1.000  C
  C526     1.0000 0.24503  0.99037  0.44283  Biso   1.000  C
  C527     1.0000 0.31282  0.94488  0.39198  Biso   1.000  C
  C528     1.0000 0.35280  0.94560  0.39140  Biso   1.000  C
  C529     1.0000 0.42760  0.49880  0.12220  Biso   1.000  C
  C530     1.0000 0.41150  0.46810  0.17170  Biso   1.000  C
  C531     1.0000 0.36419  0.49281  0.19619  Biso   1.000  C
  C532     1.0000 0.43160  0.42400  0.19560  Biso   1.000  C
  C533     1.0000 0.33991  0.47109  0.24249  Biso   1.000  C
  C534     1.0000 0.36440  0.42520  0.26320  Biso   1.000  C
  C535     1.0000 0.41078  0.40302  0.23858  Biso   1.000  C
  C536     1.0000 0.43082  0.35578  0.26698  Biso   1.000  C
  C537     1.0000 0.47407  0.35267  0.26953  Biso   1.000  C
  C538     1.0000 0.44283  0.32177  0.24503  Biso   1.000  C
  C539     1.0000 0.39198  0.35032  0.31282  Biso   1.000  C
  C540     1.0000 0.39140  0.31020  0.35280  Biso   1.000  C
  C541     1.0000 0.95140  0.12220  0.49880  Biso   1.000  C
  C542     1.0000 0.94870  0.17170  0.46810  Biso   1.000  C
  C543     1.0000 0.94681  0.19619  0.49281  Biso   1.000  C
  C544     1.0000 0.94880  0.19560  0.42400  Biso   1.000  C
  C545     1.0000 0.94651  0.24249  0.47109  Biso   1.000  C
  C546     1.0000 0.94720  0.26320  0.42520  Biso   1.000  C
  C547     1.0000 0.94762  0.23858  0.40302  Biso   1.000  C
  C548     1.0000 0.94642  0.26698  0.35578  Biso   1.000  C
  C549     1.0000 0.90373  0.26953  0.35267  Biso   1.000  C
  C550     1.0000 0.99037  0.24503  0.32177  Biso   1.000  C
  C551     1.0000 0.94488  0.31282  0.35032  Biso   1.000  C
  C552     1.0000 0.94560  0.35280  0.31020  Biso   1.000  C
  C553     1.0000 0.49880  0.95140  0.12220  Biso   1.000  C
  C554     1.0000 0.46810  0.94870  0.17170  Biso   1.000  C
  C555     1.0000 0.49281  0.94681  0.19619  Biso   1.000  C
  C556     1.0000 0.42400  0.94880  0.19560  Biso   1.000  C
  C557     1.0000 0.47109  0.94651  0.24249  Biso   1.000  C
  C558     1.0000 0.42520  0.94720  0.26320  Biso   1.000  C
  C559     1.0000 0.40302  0.94762  0.23858  Biso   1.000  C
  C560     1.0000 0.35578  0.94642  0.26698  Biso   1.000  C
  C561     1.0000 0.35267  0.90373  0.26953  Biso   1.000  C
  C562     1.0000 0.32177  0.99037  0.24503  Biso   1.000  C
  C563     1.0000 0.35032  0.94488  0.31282  Biso   1.000  C
  C564     1.0000 0.31020  0.94560  0.35280  Biso   1.000  C
  C565     1.0000 0.12220  0.42760  0.49880  Biso   1.000  C
  C566     1.0000 0.17170  0.41150  0.46810  Biso   1.000  C
  C567     1.0000 0.19619  0.36419  0.49281  Biso   1.000  C
  C568     1.0000 0.19560  0.43160  0.42400  Biso   1.000  C
  C569     1.0000 0.24249  0.33991  0.47109  Biso   1.000  C
  C570     1.0000 0.26320  0.36440  0.42520  Biso   1.000  C
  C571     1.0000 0.23858  0.41078  0.40302  Biso   1.000  C
  C572     1.0000 0.26698  0.43082  0.35578  Biso   1.000  C
  C573     1.0000 0.26953  0.47407  0.35267  Biso   1.000  C
  C574     1.0000 0.24503  0.44283  0.32177  Biso   1.000  C
  C575     1.0000 0.31282  0.39198  0.35032  Biso   1.000  C
  C576     1.0000 0.35280  0.39140  0.31020  Biso   1.000  C
  C577     1.0000 0.42760  0.12220  0.95140  Biso   1.000  C
  C578     1.0000 0.41150  0.17170  0.94870  Biso   1.000  C
  C579     1.0000 0.36419  0.19619  0.94681  Biso   1.000  C
  C580     1.0000 0.43160  0.19560  0.94880  Biso   1.000  C
  C581     1.0000 0.33991  0.24249  0.94651  Biso   1.000  C
  C582     1.0000 0.36440  0.26320  0.94720  Biso   1.000  C
  C583     1.0000 0.41078  0.23858  0.94762  Biso   1.000  C
  C584     1.0000 0.43082  0.26698  0.94642  Biso   1.000  C
  C585     1.0000 0.47407  0.26953  0.90373  Biso   1.000  C
  C586     1.0000 0.44283  0.24503  0.99037  Biso   1.000  C
  C587     1.0000 0.39198  0.31282  0.94488  Biso   1.000  C
  C588     1.0000 0.39140  0.35280  0.94560  Biso   1.000  C
  C589     1.0000 0.95140  0.49880  0.42760  Biso   1.000  C
  C590     1.0000 0.94870  0.46810  0.41150  Biso   1.000  C
  C591     1.0000 0.94681  0.49281  0.36419  Biso   1.000  C
  C592     1.0000 0.94880  0.42400  0.43160  Biso   1.000  C
  C593     1.0000 0.94651  0.47109  0.33991  Biso   1.000  C
  C594     1.0000 0.94720  0.42520  0.36440  Biso   1.000  C
  C595     1.0000 0.94762  0.40302  0.41078  Biso   1.000  C
  C596     1.0000 0.94642  0.35578  0.43082  Biso   1.000  C
  C597     1.0000 0.90373  0.35267  0.47407  Biso   1.000  C
  C598     1.0000 0.99037  0.32177  0.44283  Biso   1.000  C
  C599     1.0000 0.94488  0.35032  0.39198  Biso   1.000  C
  C600     1.0000 0.94560  0.31020  0.39140  Biso   1.000  C
  C601     1.0000 0.37780  0.00120  0.07240  Biso   1.000  C
  C602     1.0000 0.32830  0.03190  0.08850  Biso   1.000  C
  C603     1.0000 0.30381  0.00719  0.13581  Biso   1.000  C
  C604     1.0000 0.30440  0.07600  0.06840  Biso   1.000  C
  C605     1.0000 0.25751  0.02891  0.16009  Biso   1.000  C
  C606     1.0000 0.23680  0.07480  0.13560  Biso   1.000  C
  C607     1.0000 0.26142  0.09698  0.08922  Biso   1.000  C
  C608     1.0000 0.23302  0.14422  0.06918  Biso   1.000  C
  C609     1.0000 0.23047  0.14733  0.02593  Biso   1.000  C
  C610     1.0000 0.25497  0.17823  0.05717  Biso   1.000  C
  C611     1.0000 0.18718  0.14968  0.10802  Biso   1.000  C
  C612     1.0000 0.14720  0.18980  0.10860  Biso   1.000  C
  C613     1.0000 0.00120  0.37780  0.54860  Biso   1.000  C
  C614     1.0000 0.03190  0.32830  0.55130  Biso   1.000  C
  C615     1.0000 0.00719  0.30381  0.55319  Biso   1.000  C
  C616     1.0000 0.07600  0.30440  0.55120  Biso   1.000  C
  C617     1.0000 0.02891  0.25751  0.55349  Biso   1.000  C
  C618     1.0000 0.07480  0.23680  0.55280  Biso   1.000  C
  C619     1.0000 0.09698  0.26142  0.55238  Biso   1.000  C
  C620     1.0000 0.14422  0.23302  0.55358  Biso   1.000  C
  C621     1.0000 0.14733  0.23047  0.59627  Biso   1.000  C
  C622     1.0000 0.17823  0.25497  0.50963  Biso   1.000  C
  C623     1.0000 0.14968  0.18718  0.55512  Biso   1.000  C
  C624     1.0000 0.18980  0.14720  0.55440  Biso   1.000  C
  C625     1.0000 0.54860  0.07240  0.00120  Biso   1.000  C
  C626     1.0000 0.55130  0.08850  0.03190  Biso   1.000  C
  C627     1.0000 0.55319  0.13581  0.00719  Biso   1.000  C
  C628     1.0000 0.55120  0.06840  0.07600  Biso   1.000  C
  C629     1.0000 0.55349  0.16009  0.02891  Biso   1.000  C
  C630     1.0000 0.55280  0.13560  0.07480  Biso   1.000  C
  C631     1.0000 0.55238  0.08922  0.09698  Biso   1.000  C
  C632     1.0000 0.55358  0.06918  0.14422  Biso   1.000  C
  C633     1.0000 0.59627  0.02593  0.14733  Biso   1.000  C
  C634     1.0000 0.50963  0.05717  0.17823  Biso   1.000  C
  C635     1.0000 0.55512  0.10802  0.14968  Biso   1.000  C
  C636     1.0000 0.55440  0.10860  0.18980  Biso   1.000  C
  C637     1.0000 0.07240  0.54860  0.37780  Biso   1.000  C
  C638     1.0000 0.08850  0.55130  0.32830  Biso   1.000  C
  C639     1.0000 0.13581  0.55319  0.30381  Biso   1.000  C
  C640     1.0000 0.06840  0.55120  0.30440  Biso   1.000  C
  C641     1.0000 0.16009  0.55349  0.25751  Biso   1.000  C
  C642     1.0000 0.13560  0.55280  0.23680  Biso   1.000  C
  C643     1.0000 0.08922  0.55238  0.26142  Biso   1.000  C
  C644     1.0000 0.06918  0.55358  0.23302  Biso   1.000  C
  C645     1.0000 0.02593  0.59627  0.23047  Biso   1.000  C
  C646     1.0000 0.05717  0.50963  0.25497  Biso   1.000  C
  C647     1.0000 0.10802  0.55512  0.18718  Biso   1.000  C
  C648     1.0000 0.10860  0.55440  0.14720  Biso   1.000  C
  C649     1.0000 0.07240  0.00120  0.54860  Biso   1.000  C
  C650     1.0000 0.08850  0.03190  0.55130  Biso   1.000  C
  C651     1.0000 0.13581  0.00719  0.55319  Biso   1.000  C
  C652     1.0000 0.06840  0.07600  0.55120  Biso   1.000  C
  C653     1.0000 0.16009  0.02891  0.55349  Biso   1.000  C
  C654     1.0000 0.13560  0.07480  0.55280  Biso   1.000  C
  C655     1.0000 0.08922  0.09698  0.55238  Biso   1.000  C
  C656     1.0000 0.06918  0.14422  0.55358  Biso   1.000  C
  C657     1.0000 0.02593  0.14733  0.59627  Biso   1.000  C
  C658     1.0000 0.05717  0.17823  0.50963  Biso   1.000  C
  C659     1.0000 0.10802  0.14968  0.55512  Biso   1.000  C
  C660     1.0000 0.10860  0.18980  0.55440  Biso   1.000  C
  C661     1.0000 0.54860  0.37780  0.07240  Biso   1.000  C
  C662     1.0000 0.55130  0.32830  0.08850  Biso   1.000  C
  C663     1.0000 0.55319  0.30381  0.13581  Biso   1.000  C
  C664     1.0000 0.55120  0.30440  0.06840  Biso   1.000  C
  C665     1.0000 0.55349  0.25751  0.16009  Biso   1.000  C
  C666     1.0000 0.55280  0.23680  0.13560  Biso   1.000  C
  C667     1.0000 0.55238  0.26142  0.08922  Biso   1.000  C
  C668     1.0000 0.55358  0.23302  0.06918  Biso   1.000  C
  C669     1.0000 0.59627  0.23047  0.02593  Biso   1.000  C
  C670     1.0000 0.50963  0.25497  0.05717  Biso   1.000  C
  C671     1.0000 0.55512  0.18718  0.10802  Biso   1.000  C
  C672     1.0000 0.55440  0.14720  0.10860  Biso   1.000  C
  C673     1.0000 0.00120  0.07240  0.37780  Biso   1.000  C
  C674     1.0000 0.03190  0.08850  0.32830  Biso   1.000  C
  C675     1.0000 0.00719  0.13581  0.30381  Biso   1.000  C
  C676     1.0000 0.07600  0.06840  0.30440  Biso   1.000  C
  C677     1.0000 0.02891  0.16009  0.25751  Biso   1.000  C
  C678     1.0000 0.07480  0.13560  0.23680  Biso   1.000  C
  C679     1.0000 0.09698  0.08922  0.26142  Biso   1.000  C
  C680     1.0000 0.14422  0.06918  0.23302  Biso   1.000  C
  C681     1.0000 0.14733  0.02593  0.23047  Biso   1.000  C
  C682     1.0000 0.17823  0.05717  0.25497  Biso   1.000  C
  C683     1.0000 0.14968  0.10802  0.18718  Biso   1.000  C
  C684     1.0000 0.18980  0.10860  0.14720  Biso   1.000  C
  C685     1.0000 0.37780  0.54860  0.00120  Biso   1.000  C
  C686     1.0000 0.32830  0.55130  0.03190  Biso   1.000  C
  C687     1.0000 0.30381  0.55319  0.00719  Biso   1.000  C
  C688     1.0000 0.30440  0.55120  0.07600  Biso   1.000  C
  C689     1.0000 0.25751  0.55349  0.02891  Biso   1.000  C
  C690     1.0000 0.23680  0.55280  0.07480  Biso   1.000  C
  C691     1.0000 0.26142  0.55238  0.09698  Biso   1.000  C
  C692     1.0000 0.23302  0.55358  0.14422  Biso   1.000  C
  C693     1.0000 0.23047  0.59627  0.14733  Biso   1.000  C
  C694     1.0000 0.25497  0.50963  0.17823  Biso   1.000  C
  C695     1.0000 0.18718  0.55512  0.14968  Biso   1.000  C
  C696     1.0000 0.14720  0.55440  0.18980  Biso   1.000  C
  C697     1.0000 0.54860  0.00120  0.37780  Biso   1.000  C
  C698     1.0000 0.55130  0.03190  0.32830  Biso   1.000  C
  C699     1.0000 0.55319  0.00719  0.30381  Biso   1.000  C
  C700     1.0000 0.55120  0.07600  0.30440  Biso   1.000  C
  C701     1.0000 0.55349  0.02891  0.25751  Biso   1.000  C
  C702     1.0000 0.55280  0.07480  0.23680  Biso   1.000  C
  C703     1.0000 0.55238  0.09698  0.26142  Biso   1.000  C
  C704     1.0000 0.55358  0.14422  0.23302  Biso   1.000  C
  C705     1.0000 0.59627  0.14733  0.23047  Biso   1.000  C
  C706     1.0000 0.50963  0.17823  0.25497  Biso   1.000  C
  C707     1.0000 0.55512  0.14968  0.18718  Biso   1.000  C
  C708     1.0000 0.55440  0.18980  0.14720  Biso   1.000  C
  C709     1.0000 0.07240  0.37780  0.00120  Biso   1.000  C
  C710     1.0000 0.08850  0.32830  0.03190  Biso   1.000  C
  C711     1.0000 0.13581  0.30381  0.00719  Biso   1.000  C
  C712     1.0000 0.06840  0.30440  0.07600  Biso   1.000  C
  C713     1.0000 0.16009  0.25751  0.02891  Biso   1.000  C
  C714     1.0000 0.13560  0.23680  0.07480  Biso   1.000  C
  C715     1.0000 0.08922  0.26142  0.09698  Biso   1.000  C
  C716     1.0000 0.06918  0.23302  0.14422  Biso   1.000  C
  C717     1.0000 0.02593  0.23047  0.14733  Biso   1.000  C
  C718     1.0000 0.05717  0.25497  0.17823  Biso   1.000  C
  C719     1.0000 0.10802  0.18718  0.14968  Biso   1.000  C
  C720     1.0000 0.10860  0.14720  0.18980  Biso   1.000  C
  C721     1.0000 0.37780  0.07240  0.54860  Biso   1.000  C
  C722     1.0000 0.32830  0.08850  0.55130  Biso   1.000  C
  C723     1.0000 0.30381  0.13581  0.55319  Biso   1.000  C
  C724     1.0000 0.30440  0.06840  0.55120  Biso   1.000  C
  C725     1.0000 0.25751  0.16009  0.55349  Biso   1.000  C
  C726     1.0000 0.23680  0.13560  0.55280  Biso   1.000  C
  C727     1.0000 0.26142  0.08922  0.55238  Biso   1.000  C
  C728     1.0000 0.23302  0.06918  0.55358  Biso   1.000  C
  C729     1.0000 0.23047  0.02593  0.59627  Biso   1.000  C
  C730     1.0000 0.25497  0.05717  0.50963  Biso   1.000  C
  C731     1.0000 0.18718  0.10802  0.55512  Biso   1.000  C
  C732     1.0000 0.14720  0.10860  0.55440  Biso   1.000  C
  C733     1.0000 0.00120  0.54860  0.07240  Biso   1.000  C
  C734     1.0000 0.03190  0.55130  0.08850  Biso   1.000  C
  C735     1.0000 0.00719  0.55319  0.13581  Biso   1.000  C
  C736     1.0000 0.07600  0.55120  0.06840  Biso   1.000  C
  C737     1.0000 0.02891  0.55349  0.16009  Biso   1.000  C
  C738     1.0000 0.07480  0.55280  0.13560  Biso   1.000  C
  C739     1.0000 0.09698  0.55238  0.08922  Biso   1.000  C
  C740     1.0000 0.14422  0.55358  0.06918  Biso   1.000  C
  C741     1.0000 0.14733  0.59627  0.02593  Biso   1.000  C
  C742     1.0000 0.17823  0.50963  0.05717  Biso   1.000  C
  C743     1.0000 0.14968  0.55512  0.10802  Biso   1.000  C
  C744     1.0000 0.18980  0.55440  0.10860  Biso   1.000  C
  C745     1.0000 0.50120  0.87780  0.57240  Biso   1.000  C
  C746     1.0000 0.53190  0.82830  0.58850  Biso   1.000  C
  C747     1.0000 0.50719  0.80381  0.63581  Biso   1.000  C
  C748     1.0000 0.57600  0.80440  0.56840  Biso   1.000  C
  C749     1.0000 0.52891  0.75751  0.66009  Biso   1.000  C
  C750     1.0000 0.57480  0.73680  0.63560  Biso   1.000  C
  C751     1.0000 0.59698  0.76142  0.58922  Biso   1.000  C
  C752     1.0000 0.64422  0.73302  0.56918  Biso   1.000  C
  C753     1.0000 0.64733  0.73047  0.52593  Biso   1.000  C
  C754     1.0000 0.67823  0.75497  0.55717  Biso   1.000  C
  C755     1.0000 0.64968  0.68718  0.60802  Biso   1.000  C
  C756     1.0000 0.68980  0.64720  0.60860  Biso   1.000  C
  C757     1.0000 0.87780  0.50120  0.04860  Biso   1.000  C
  C758     1.0000 0.82830  0.53190  0.05130  Biso   1.000  C
  C759     1.0000 0.80381  0.50719  0.05319  Biso   1.000  C
  C760     1.0000 0.80440  0.57600  0.05120  Biso   1.000  C
  C761     1.0000 0.75751  0.52891  0.05349  Biso   1.000  C
  C762     1.0000 0.73680  0.57480  0.05280  Biso   1.000  C
  C763     1.0000 0.76142  0.59698  0.05238  Biso   1.000  C
  C764     1.0000 0.73302  0.64422  0.05358  Biso   1.000  C
  C765     1.0000 0.73047  0.64733  0.09627  Biso   1.000  C
  C766     1.0000 0.75497  0.67823  0.00963  Biso   1.000  C
  C767     1.0000 0.68718  0.64968  0.05512  Biso   1.000  C
  C768     1.0000 0.64720  0.68980  0.05440  Biso   1.000  C
  C769     1.0000 0.57240  0.04860  0.50120  Biso   1.000  C
  C770     1.0000 0.58850  0.05130  0.53190  Biso   1.000  C
  C771     1.0000 0.63581  0.05319  0.50719  Biso   1.000  C
  C772     1.0000 0.56840  0.05120  0.57600  Biso   1.000  C
  C773     1.0000 0.66009  0.05349  0.52891  Biso   1.000  C
  C774     1.0000 0.63560  0.05280  0.57480  Biso   1.000  C
  C775     1.0000 0.58922  0.05238  0.59698  Biso   1.000  C
  C776     1.0000 0.56918  0.05358  0.64422  Biso   1.000  C
  C777     1.0000 0.52593  0.09627  0.64733  Biso   1.000  C
  C778     1.0000 0.55717  0.00963  0.67823  Biso   1.000  C
  C779     1.0000 0.60802  0.05512  0.64968  Biso   1.000  C
  C780     1.0000 0.60860  0.05440  0.68980  Biso   1.000  C
  C781     1.0000 0.04860  0.57240  0.87780  Biso   1.000  C
  C782     1.0000 0.05130  0.58850  0.82830  Biso   1.000  C
  C783     1.0000 0.05319  0.63581  0.80381  Biso   1.000  C
  C784     1.0000 0.05120  0.56840  0.80440  Biso   1.000  C
  C785     1.0000 0.05349  0.66009  0.75751  Biso   1.000  C
  C786     1.0000 0.05280  0.63560  0.73680  Biso   1.000  C
  C787     1.0000 0.05238  0.58922  0.76142  Biso   1.000  C
  C788     1.0000 0.05358  0.56918  0.73302  Biso   1.000  C
  C789     1.0000 0.09627  0.52593  0.73047  Biso   1.000  C
  C790     1.0000 0.00963  0.55717  0.75497  Biso   1.000  C
  C791     1.0000 0.05512  0.60802  0.68718  Biso   1.000  C
  C792     1.0000 0.05440  0.60860  0.64720  Biso   1.000  C
  C793     1.0000 0.50120  0.57240  0.04860  Biso   1.000  C
  C794     1.0000 0.53190  0.58850  0.05130  Biso   1.000  C
  C795     1.0000 0.50719  0.63581  0.05319  Biso   1.000  C
  C796     1.0000 0.57600  0.56840  0.05120  Biso   1.000  C
  C797     1.0000 0.52891  0.66009  0.05349  Biso   1.000  C
  C798     1.0000 0.57480  0.63560  0.05280  Biso   1.000  C
  C799     1.0000 0.59698  0.58922  0.05238  Biso   1.000  C
  C800     1.0000 0.64422  0.56918  0.05358  Biso   1.000  C
  C801     1.0000 0.64733  0.52593  0.09627  Biso   1.000  C
  C802     1.0000 0.67823  0.55717  0.00963  Biso   1.000  C
  C803     1.0000 0.64968  0.60802  0.05512  Biso   1.000  C
  C804     1.0000 0.68980  0.60860  0.05440  Biso   1.000  C
  C805     1.0000 0.87780  0.04860  0.57240  Biso   1.000  C
  C806     1.0000 0.82830  0.05130  0.58850  Biso   1.000  C
  C807     1.0000 0.80381  0.05319  0.63581  Biso   1.000  C
  C808     1.0000 0.80440  0.05120  0.56840  Biso   1.000  C
  C809     1.0000 0.75751  0.05349  0.66009  Biso   1.000  C
  C810     1.0000 0.73680  0.05280  0.63560  Biso   1.000  C
  C811     1.0000 0.76142  0.05238  0.58922  Biso   1.000  C
  C812     1.0000 0.73302  0.05358  0.56918  Biso   1.000  C
  C813     1.0000 0.73047  0.09627  0.52593  Biso   1.000  C
  C814     1.0000 0.75497  0.00963  0.55717  Biso   1.000  C
  C815     1.0000 0.68718  0.05512  0.60802  Biso   1.000  C
  C816     1.0000 0.64720  0.05440  0.60860  Biso   1.000  C
  C817     1.0000 0.57240  0.50120  0.87780  Biso   1.000  C
  C818     1.0000 0.58850  0.53190  0.82830  Biso   1.000  C
  C819     1.0000 0.63581  0.50719  0.80381  Biso   1.000  C
  C820     1.0000 0.56840  0.57600  0.80440  Biso   1.000  C
  C821     1.0000 0.66009  0.52891  0.75751  Biso   1.000  C
  C822     1.0000 0.63560  0.57480  0.73680  Biso   1.000  C
  C823     1.0000 0.58922  0.59698  0.76142  Biso   1.000  C
  C824     1.0000 0.56918  0.64422  0.73302  Biso   1.000  C
  C825     1.0000 0.52593  0.64733  0.73047  Biso   1.000  C
  C826     1.0000 0.55717  0.67823  0.75497  Biso   1.000  C
  C827     1.0000 0.60802  0.64968  0.68718  Biso   1.000  C
  C828     1.0000 0.60860  0.68980  0.64720  Biso   1.000  C
  C829     1.0000 0.04860  0.87780  0.50120  Biso   1.000  C
  C830     1.0000 0.05130  0.82830  0.53190  Biso   1.000  C
  C831     1.0000 0.05319  0.80381  0.50719  Biso   1.000  C
  C832     1.0000 0.05120  0.80440  0.57600  Biso   1.000  C
  C833     1.0000 0.05349  0.75751  0.52891  Biso   1.000  C
  C834     1.0000 0.05280  0.73680  0.57480  Biso   1.000  C
  C835     1.0000 0.05238  0.76142  0.59698  Biso   1.000  C
  C836     1.0000 0.05358  0.73302  0.64422  Biso   1.000  C
  C837     1.0000 0.09627  0.73047  0.64733  Biso   1.000  C
  C838     1.0000 0.00963  0.75497  0.67823  Biso   1.000  C
  C839     1.0000 0.05512  0.68718  0.64968  Biso   1.000  C
  C840     1.0000 0.05440  0.64720  0.68980  Biso   1.000  C
  C841     1.0000 0.50120  0.04860  0.87780  Biso   1.000  C
  C842     1.0000 0.53190  0.05130  0.82830  Biso   1.000  C
  C843     1.0000 0.50719  0.05319  0.80381  Biso   1.000  C
  C844     1.0000 0.57600  0.05120  0.80440  Biso   1.000  C
  C845     1.0000 0.52891  0.05349  0.75751  Biso   1.000  C
  C846     1.0000 0.57480  0.05280  0.73680  Biso   1.000  C
  C847     1.0000 0.59698  0.05238  0.76142  Biso   1.000  C
  C848     1.0000 0.64422  0.05358  0.73302  Biso   1.000  C
  C849     1.0000 0.64733  0.09627  0.73047  Biso   1.000  C
  C850     1.0000 0.67823  0.00963  0.75497  Biso   1.000  C
  C851     1.0000 0.64968  0.05512  0.68718  Biso   1.000  C
  C852     1.0000 0.68980  0.05440  0.64720  Biso   1.000  C
  C853     1.0000 0.87780  0.57240  0.50120  Biso   1.000  C
  C854     1.0000 0.82830  0.58850  0.53190  Biso   1.000  C
  C855     1.0000 0.80381  0.63581  0.50719  Biso   1.000  C
  C856     1.0000 0.80440  0.56840  0.57600  Biso   1.000  C
  C857     1.0000 0.75751  0.66009  0.52891  Biso   1.000  C
  C858     1.0000 0.73680  0.63560  0.57480  Biso   1.000  C
  C859     1.0000 0.76142  0.58922  0.59698  Biso   1.000  C
  C860     1.0000 0.73302  0.56918  0.64422  Biso   1.000  C
  C861     1.0000 0.73047  0.52593  0.64733  Biso   1.000  C
  C862     1.0000 0.75497  0.55717  0.67823  Biso   1.000  C
  C863     1.0000 0.68718  0.60802  0.64968  Biso   1.000  C
  C864     1.0000 0.64720  0.60860  0.68980  Biso   1.000  C
  C865     1.0000 0.57240  0.87780  0.04860  Biso   1.000  C
  C866     1.0000 0.58850  0.82830  0.05130  Biso   1.000  C
  C867     1.0000 0.63581  0.80381  0.05319  Biso   1.000  C
  C868     1.0000 0.56840  0.80440  0.05120  Biso   1.000  C
  C869     1.0000 0.66009  0.75751  0.05349  Biso   1.000  C
  C870     1.0000 0.63560  0.73680  0.05280  Biso   1.000  C
  C871     1.0000 0.58922  0.76142  0.05238  Biso   1.000  C
  C872     1.0000 0.56918  0.73302  0.05358  Biso   1.000  C
  C873     1.0000 0.52593  0.73047  0.09627  Biso   1.000  C
  C874     1.0000 0.55717  0.75497  0.00963  Biso   1.000  C
  C875     1.0000 0.60802  0.68718  0.05512  Biso   1.000  C
  C876     1.0000 0.60860  0.64720  0.05440  Biso   1.000  C
  C877     1.0000 0.04860  0.50120  0.57240  Biso   1.000  C
  C878     1.0000 0.05130  0.53190  0.58850  Biso   1.000  C
  C879     1.0000 0.05319  0.50719  0.63581  Biso   1.000  C
  C880     1.0000 0.05120  0.57600  0.56840  Biso   1.000  C
  C881     1.0000 0.05349  0.52891  0.66009  Biso   1.000  C
  C882     1.0000 0.05280  0.57480  0.63560  Biso   1.000  C
  C883     1.0000 0.05238  0.59698  0.58922  Biso   1.000  C
  C884     1.0000 0.05358  0.64422  0.56918  Biso   1.000  C
  C885     1.0000 0.09627  0.64733  0.52593  Biso   1.000  C
  C886     1.0000 0.00963  0.67823  0.55717  Biso   1.000  C
  C887     1.0000 0.05512  0.64968  0.60802  Biso   1.000  C
  C888     1.0000 0.05440  0.68980  0.60860  Biso   1.000  C
  C889     1.0000 0.62220  0.99880  0.92760  Biso   1.000  C
  C890     1.0000 0.67170  0.96810  0.91150  Biso   1.000  C
  C891     1.0000 0.69619  0.99281  0.86419  Biso   1.000  C
  C892     1.0000 0.69560  0.92400  0.93160  Biso   1.000  C
  C893     1.0000 0.74249  0.97109  0.83991  Biso   1.000  C
  C894     1.0000 0.76320  0.92520  0.86440  Biso   1.000  C
  C895     1.0000 0.73858  0.90302  0.91078  Biso   1.000  C
  C896     1.0000 0.76698  0.85578  0.93082  Biso   1.000  C
  C897     1.0000 0.76953  0.85267  0.97407  Biso   1.000  C
  C898     1.0000 0.74503  0.82177  0.94283  Biso   1.000  C
  C899     1.0000 0.81282  0.85032  0.89198  Biso   1.000  C
  C900     1.0000 0.85280  0.81020  0.89140  Biso   1.000  C
  C901     1.0000 0.99880  0.62220  0.45140  Biso   1.000  C
  C902     1.0000 0.96810  0.67170  0.44870  Biso   1.000  C
  C903     1.0000 0.99281  0.69619  0.44681  Biso   1.000  C
  C904     1.0000 0.92400  0.69560  0.44880  Biso   1.000  C
  C905     1.0000 0.97109  0.74249  0.44651  Biso   1.000  C
  C906     1.0000 0.92520  0.76320  0.44720  Biso   1.000  C
  C907     1.0000 0.90302  0.73858  0.44762  Biso   1.000  C
  C908     1.0000 0.85578  0.76698  0.44642  Biso   1.000  C
  C909     1.0000 0.85267  0.76953  0.40373  Biso   1.000  C
  C910     1.0000 0.82177  0.74503  0.49037  Biso   1.000  C
  C911     1.0000 0.85032  0.81282  0.44488  Biso   1.000  C
  C912     1.0000 0.81020  0.85280  0.44560  Biso   1.000  C
  C913     1.0000 0.45140  0.92760  0.99880  Biso   1.000  C
  C914     1.0000 0.44870  0.91150  0.96810  Biso   1.000  C
  C915     1.0000 0.44681  0.86419  0.99281  Biso   1.000  C
  C916     1.0000 0.44880  0.93160  0.92400  Biso   1.000  C
  C917     1.0000 0.44651  0.83991  0.97109  Biso   1.000  C
  C918     1.0000 0.44720  0.86440  0.92520  Biso   1.000  C
  C919     1.0000 0.44762  0.91078  0.90302  Biso   1.000  C
  C920     1.0000 0.44642  0.93082  0.85578  Biso   1.000  C
  C921     1.0000 0.40373  0.97407  0.85267  Biso   1.000  C
  C922     1.0000 0.49037  0.94283  0.82177  Biso   1.000  C
  C923     1.0000 0.44488  0.89198  0.85032  Biso   1.000  C
  C924     1.0000 0.44560  0.89140  0.81020  Biso   1.000  C
  C925     1.0000 0.92760  0.45140  0.62220  Biso   1.000  C
  C926     1.0000 0.91150  0.44870  0.67170  Biso   1.000  C
  C927     1.0000 0.86419  0.44681  0.69619  Biso   1.000  C
  C928     1.0000 0.93160  0.44880  0.69560  Biso   1.000  C
  C929     1.0000 0.83991  0.44651  0.74249  Biso   1.000  C
  C930     1.0000 0.86440  0.44720  0.76320  Biso   1.000  C
  C931     1.0000 0.91078  0.44762  0.73858  Biso   1.000  C
  C932     1.0000 0.93082  0.44642  0.76698  Biso   1.000  C
  C933     1.0000 0.97407  0.40373  0.76953  Biso   1.000  C
  C934     1.0000 0.94283  0.49037  0.74503  Biso   1.000  C
  C935     1.0000 0.89198  0.44488  0.81282  Biso   1.000  C
  C936     1.0000 0.89140  0.44560  0.85280  Biso   1.000  C
  C937     1.0000 0.92760  0.99880  0.45140  Biso   1.000  C
  C938     1.0000 0.91150  0.96810  0.44870  Biso   1.000  C
  C939     1.0000 0.86419  0.99281  0.44681  Biso   1.000  C
  C940     1.0000 0.93160  0.92400  0.44880  Biso   1.000  C
  C941     1.0000 0.83991  0.97109  0.44651  Biso   1.000  C
  C942     1.0000 0.86440  0.92520  0.44720  Biso   1.000  C
  C943     1.0000 0.91078  0.90302  0.44762  Biso   1.000  C
  C944     1.0000 0.93082  0.85578  0.44642  Biso   1.000  C
  C945     1.0000 0.97407  0.85267  0.40373  Biso   1.000  C
  C946     1.0000 0.94283  0.82177  0.49037  Biso   1.000  C
  C947     1.0000 0.89198  0.85032  0.44488  Biso   1.000  C
  C948     1.0000 0.89140  0.81020  0.44560  Biso   1.000  C
  C949     1.0000 0.45140  0.62220  0.92760  Biso   1.000  C
  C950     1.0000 0.44870  0.67170  0.91150  Biso   1.000  C
  C951     1.0000 0.44681  0.69619  0.86419  Biso   1.000  C
  C952     1.0000 0.44880  0.69560  0.93160  Biso   1.000  C
  C953     1.0000 0.44651  0.74249  0.83991  Biso   1.000  C
  C954     1.0000 0.44720  0.76320  0.86440  Biso   1.000  C
  C955     1.0000 0.44762  0.73858  0.91078  Biso   1.000  C
  C956     1.0000 0.44642  0.76698  0.93082  Biso   1.000  C
  C957     1.0000 0.40373  0.76953  0.97407  Biso   1.000  C
  C958     1.0000 0.49037  0.74503  0.94283  Biso   1.000  C
  C959     1.0000 0.44488  0.81282  0.89198  Biso   1.000  C
  C960     1.0000 0.44560  0.85280  0.89140  Biso   1.000  C
  C961     1.0000 0.99880  0.92760  0.62220  Biso   1.000  C
  C962     1.0000 0.96810  0.91150  0.67170  Biso   1.000  C
  C963     1.0000 0.99281  0.86419  0.69619  Biso   1.000  C
  C964     1.0000 0.92400  0.93160  0.69560  Biso   1.000  C
  C965     1.0000 0.97109  0.83991  0.74249  Biso   1.000  C
  C966     1.0000 0.92520  0.86440  0.76320  Biso   1.000  C
  C967     1.0000 0.90302  0.91078  0.73858  Biso   1.000  C
  C968     1.0000 0.85578  0.93082  0.76698  Biso   1.000  C
  C969     1.0000 0.85267  0.97407  0.76953  Biso   1.000  C
  C970     1.0000 0.82177  0.94283  0.74503  Biso   1.000  C
  C971     1.0000 0.85032  0.89198  0.81282  Biso   1.000  C
  C972     1.0000 0.81020  0.89140  0.85280  Biso   1.000  C
  C973     1.0000 0.62220  0.45140  0.99880  Biso   1.000  C
  C974     1.0000 0.67170  0.44870  0.96810  Biso   1.000  C
  C975     1.0000 0.69619  0.44681  0.99281  Biso   1.000  C
  C976     1.0000 0.69560  0.44880  0.92400  Biso   1.000  C
  C977     1.0000 0.74249  0.44651  0.97109  Biso   1.000  C
  C978     1.0000 0.76320  0.44720  0.92520  Biso   1.000  C
  C979     1.0000 0.73858  0.44762  0.90302  Biso   1.000  C
  C980     1.0000 0.76698  0.44642  0.85578  Biso   1.000  C
  C981     1.0000 0.76953  0.40373  0.85267  Biso   1.000  C
  C982     1.0000 0.74503  0.49037  0.82177  Biso   1.000  C
  C983     1.0000 0.81282  0.44488  0.85032  Biso   1.000  C
  C984     1.0000 0.85280  0.44560  0.81020  Biso   1.000  C
  C985     1.0000 0.45140  0.99880  0.62220  Biso   1.000  C
  C986     1.0000 0.44870  0.96810  0.67170  Biso   1.000  C
  C987     1.0000 0.44681  0.99281  0.69619  Biso   1.000  C
  C988     1.0000 0.44880  0.92400  0.69560  Biso   1.000  C
  C989     1.0000 0.44651  0.97109  0.74249  Biso   1.000  C
  C990     1.0000 0.44720  0.92520  0.76320  Biso   1.000  C
  C991     1.0000 0.44762  0.90302  0.73858  Biso   1.000  C
  C992     1.0000 0.44642  0.85578  0.76698  Biso   1.000  C
  C993     1.0000 0.40373  0.85267  0.76953  Biso   1.000  C
  C994     1.0000 0.49037  0.82177  0.74503  Biso   1.000  C
  C995     1.0000 0.44488  0.85032  0.81282  Biso   1.000  C
  C996     1.0000 0.44560  0.81020  0.85280  Biso   1.000  C
  C997     1.0000 0.92760  0.62220  0.99880  Biso   1.000  C
  C998     1.0000 0.91150  0.67170  0.96810  Biso   1.000  C
  C999     1.0000 0.86419  0.69619  0.99281  Biso   1.000  C
  C1000    1.0000 0.93160  0.69560  0.92400  Biso   1.000  C
  C1001    1.0000 0.83991  0.74249  0.97109  Biso   1.000  C
  C1002    1.0000 0.86440  0.76320  0.92520  Biso   1.000  C
  C1003    1.0000 0.91078  0.73858  0.90302  Biso   1.000  C
  C1004    1.0000 0.93082  0.76698  0.85578  Biso   1.000  C
  C1005    1.0000 0.97407  0.76953  0.85267  Biso   1.000  C
  C1006    1.0000 0.94283  0.74503  0.82177  Biso   1.000  C
  C1007    1.0000 0.89198  0.81282  0.85032  Biso   1.000  C
  C1008    1.0000 0.89140  0.85280  0.81020  Biso   1.000  C
  C1009    1.0000 0.62220  0.92760  0.45140  Biso   1.000  C
  C1010    1.0000 0.67170  0.91150  0.44870  Biso   1.000  C
  C1011    1.0000 0.69619  0.86419  0.44681  Biso   1.000  C
  C1012    1.0000 0.69560  0.93160  0.44880  Biso   1.000  C
  C1013    1.0000 0.74249  0.83991  0.44651  Biso   1.000  C
  C1014    1.0000 0.76320  0.86440  0.44720  Biso   1.000  C
  C1015    1.0000 0.73858  0.91078  0.44762  Biso   1.000  C
  C1016    1.0000 0.76698  0.93082  0.44642  Biso   1.000  C
  C1017    1.0000 0.76953  0.97407  0.40373  Biso   1.000  C
  C1018    1.0000 0.74503  0.94283  0.49037  Biso   1.000  C
  C1019    1.0000 0.81282  0.89198  0.44488  Biso   1.000  C
  C1020    1.0000 0.85280  0.89140  0.44560  Biso   1.000  C
  C1021    1.0000 0.99880  0.45140  0.92760  Biso   1.000  C
  C1022    1.0000 0.96810  0.44870  0.91150  Biso   1.000  C
  C1023    1.0000 0.99281  0.44681  0.86419  Biso   1.000  C
  C1024    1.0000 0.92400  0.44880  0.93160  Biso   1.000  C
  C1025    1.0000 0.97109  0.44651  0.83991  Biso   1.000  C
  C1026    1.0000 0.92520  0.44720  0.86440  Biso   1.000  C
  C1027    1.0000 0.90302  0.44762  0.91078  Biso   1.000  C
  C1028    1.0000 0.85578  0.44642  0.93082  Biso   1.000  C
  C1029    1.0000 0.85267  0.40373  0.97407  Biso   1.000  C
  C1030    1.0000 0.82177  0.49037  0.94283  Biso   1.000  C
  C1031    1.0000 0.85032  0.44488  0.89198  Biso   1.000  C
  C1032    1.0000 0.81020  0.44560  0.89140  Biso   1.000  C
  C1033    1.0000 0.49060  0.00940  0.49060  Biso   1.000  C
  C1034    1.0000 0.00940  0.49060  0.00940  Biso   1.000  C
  C1035    1.0000 0.49060  0.49060  0.00940  Biso   1.000  C
  C1036    1.0000 0.00940  0.00940  0.49060  Biso   1.000  C
  C1037    1.0000 0.49060  0.00940  0.00940  Biso   1.000  C
  C1038    1.0000 0.00940  0.49060  0.49060  Biso   1.000  C
  C1039    1.0000 0.50940  0.99060  0.50940  Biso   1.000  C
  C1040    1.0000 0.99060  0.50940  0.99060  Biso   1.000  C
  C1041    1.0000 0.50940  0.50940  0.99060  Biso   1.000  C
  C1042    1.0000 0.99060  0.99060  0.50940  Biso   1.000  C
  C1043    1.0000 0.50940  0.99060  0.99060  Biso   1.000  C
  C1044    1.0000 0.99060  0.50940  0.50940  Biso   1.000  C
  C1045    1.0000 0.53668  0.10172  0.40588  Biso   1.000  C
  C1046    1.0000 0.47690  0.09790  0.45490  Biso   1.000  C
  C1047    1.0000 0.47890  0.10950  0.48390  Biso   1.000  C
  C1048    1.0000 0.10172  0.53668  0.95572  Biso   1.000  C
  C1049    1.0000 0.09790  0.47690  0.97030  Biso   1.000  C
  C1050    1.0000 0.10950  0.47890  0.92770  Biso   1.000  C
  C1051    1.0000 0.40588  0.95572  0.53668  Biso   1.000  C
  C1052    1.0000 0.45490  0.97030  0.47690  Biso   1.000  C
  C1053    1.0000 0.48390  0.92770  0.47890  Biso   1.000  C
  C1054    1.0000 0.95572  0.40588  0.10172  Biso   1.000  C
  C1055    1.0000 0.97030  0.45490  0.09790  Biso   1.000  C
  C1056    1.0000 0.92770  0.48390  0.10950  Biso   1.000  C
  C1057    1.0000 0.53668  0.40588  0.95572  Biso   1.000  C
  C1058    1.0000 0.47690  0.45490  0.97030  Biso   1.000  C
  C1059    1.0000 0.47890  0.48390  0.92770  Biso   1.000  C
  C1060    1.0000 0.10172  0.95572  0.40588  Biso   1.000  C
  C1061    1.0000 0.09790  0.97030  0.45490  Biso   1.000  C
  C1062    1.0000 0.10950  0.92770  0.48390  Biso   1.000  C
  C1063    1.0000 0.40588  0.53668  0.10172  Biso   1.000  C
  C1064    1.0000 0.45490  0.47690  0.09790  Biso   1.000  C
  C1065    1.0000 0.48390  0.47890  0.10950  Biso   1.000  C
  C1066    1.0000 0.95572  0.10172  0.53668  Biso   1.000  C
  C1067    1.0000 0.97030  0.09790  0.47690  Biso   1.000  C
  C1068    1.0000 0.92770  0.10950  0.47890  Biso   1.000  C
  C1069    1.0000 0.53668  0.95572  0.10172  Biso   1.000  C
  C1070    1.0000 0.47690  0.97030  0.09790  Biso   1.000  C
  C1071    1.0000 0.47890  0.92770  0.10950  Biso   1.000  C
  C1072    1.0000 0.10172  0.40588  0.53668  Biso   1.000  C
  C1073    1.0000 0.09790  0.45490  0.47690  Biso   1.000  C
  C1074    1.0000 0.10950  0.48390  0.47890  Biso   1.000  C
  C1075    1.0000 0.40588  0.10172  0.95572  Biso   1.000  C
  C1076    1.0000 0.45490  0.09790  0.97030  Biso   1.000  C
  C1077    1.0000 0.48390  0.10950  0.92770  Biso   1.000  C
  C1078    1.0000 0.95572  0.53668  0.40588  Biso   1.000  C
  C1079    1.0000 0.97030  0.47690  0.45490  Biso   1.000  C
  C1080    1.0000 0.92770  0.47890  0.48390  Biso   1.000  C
  C1081    1.0000 0.39828  0.96332  0.09412  Biso   1.000  C
  C1082    1.0000 0.40210  0.02310  0.04510  Biso   1.000  C
  C1083    1.0000 0.39050  0.02110  0.01610  Biso   1.000  C
  C1084    1.0000 0.96332  0.39828  0.54428  Biso   1.000  C
  C1085    1.0000 0.02310  0.40210  0.52970  Biso   1.000  C
  C1086    1.0000 0.02110  0.39050  0.57230  Biso   1.000  C
  C1087    1.0000 0.54428  0.09412  0.96332  Biso   1.000  C
  C1088    1.0000 0.52970  0.04510  0.02310  Biso   1.000  C
  C1089    1.0000 0.57230  0.01610  0.02110  Biso   1.000  C
  C1090    1.0000 0.09412  0.54428  0.39828  Biso   1.000  C
  C1091    1.0000 0.04510  0.52970  0.40210  Biso   1.000  C
  C1092    1.0000 0.01610  0.57230  0.39050  Biso   1.000  C
  C1093    1.0000 0.09412  0.96332  0.54428  Biso   1.000  C
  C1094    1.0000 0.04510  0.02310  0.52970  Biso   1.000  C
  C1095    1.0000 0.01610  0.02110  0.57230  Biso   1.000  C
  C1096    1.0000 0.54428  0.39828  0.09412  Biso   1.000  C
  C1097    1.0000 0.52970  0.40210  0.04510  Biso   1.000  C
  C1098    1.0000 0.57230  0.39050  0.01610  Biso   1.000  C
  C1099    1.0000 0.96332  0.09412  0.39828  Biso   1.000  C
  C1100    1.0000 0.02310  0.04510  0.40210  Biso   1.000  C
  C1101    1.0000 0.02110  0.01610  0.39050  Biso   1.000  C
  C1102    1.0000 0.39828  0.54428  0.96332  Biso   1.000  C
  C1103    1.0000 0.40210  0.52970  0.02310  Biso   1.000  C
  C1104    1.0000 0.39050  0.57230  0.02110  Biso   1.000  C
  C1105    1.0000 0.54428  0.96332  0.39828  Biso   1.000  C
  C1106    1.0000 0.52970  0.02310  0.40210  Biso   1.000  C
  C1107    1.0000 0.57230  0.02110  0.39050  Biso   1.000  C
  C1108    1.0000 0.09412  0.39828  0.96332  Biso   1.000  C
  C1109    1.0000 0.04510  0.40210  0.02310  Biso   1.000  C
  C1110    1.0000 0.01610  0.39050  0.02110  Biso   1.000  C
  C1111    1.0000 0.39828  0.09412  0.54428  Biso   1.000  C
  C1112    1.0000 0.40210  0.04510  0.52970  Biso   1.000  C
  C1113    1.0000 0.39050  0.01610  0.57230  Biso   1.000  C
  C1114    1.0000 0.96332  0.54428  0.09412  Biso   1.000  C
  C1115    1.0000 0.02310  0.52970  0.04510  Biso   1.000  C
  C1116    1.0000 0.02110  0.57230  0.01610  Biso   1.000  C
  C1117    1.0000 0.46332  0.89828  0.59412  Biso   1.000  C
  C1118    1.0000 0.52310  0.90210  0.54510  Biso   1.000  C
  C1119    1.0000 0.52110  0.89050  0.51610  Biso   1.000  C
  C1120    1.0000 0.89828  0.46332  0.04428  Biso   1.000  C
  C1121    1.0000 0.90210  0.52310  0.02970  Biso   1.000  C
  C1122    1.0000 0.89050  0.52110  0.07230  Biso   1.000  C
  C1123    1.0000 0.59412  0.04428  0.46332  Biso   1.000  C
  C1124    1.0000 0.54510  0.02970  0.52310  Biso   1.000  C
  C1125    1.0000 0.51610  0.07230  0.52110  Biso   1.000  C
  C1126    1.0000 0.04428  0.59412  0.89828  Biso   1.000  C
  C1127    1.0000 0.02970  0.54510  0.90210  Biso   1.000  C
  C1128    1.0000 0.07230  0.51610  0.89050  Biso   1.000  C
  C1129    1.0000 0.46332  0.59412  0.04428  Biso   1.000  C
  C1130    1.0000 0.52310  0.54510  0.02970  Biso   1.000  C
  C1131    1.0000 0.52110  0.51610  0.07230  Biso   1.000  C
  C1132    1.0000 0.89828  0.04428  0.59412  Biso   1.000  C
  C1133    1.0000 0.90210  0.02970  0.54510  Biso   1.000  C
  C1134    1.0000 0.89050  0.07230  0.51610  Biso   1.000  C
  C1135    1.0000 0.59412  0.46332  0.89828  Biso   1.000  C
  C1136    1.0000 0.54510  0.52310  0.90210  Biso   1.000  C
  C1137    1.0000 0.51610  0.52110  0.89050  Biso   1.000  C
  C1138    1.0000 0.04428  0.89828  0.46332  Biso   1.000  C
  C1139    1.0000 0.02970  0.90210  0.52310  Biso   1.000  C
  C1140    1.0000 0.07230  0.89050  0.52110  Biso   1.000  C
  C1141    1.0000 0.46332  0.04428  0.89828  Biso   1.000  C
  C1142    1.0000 0.52310  0.02970  0.90210  Biso   1.000  C
  C1143    1.0000 0.52110  0.07230  0.89050  Biso   1.000  C
  C1144    1.0000 0.89828  0.59412  0.46332  Biso   1.000  C
  C1145    1.0000 0.90210  0.54510  0.52310  Biso   1.000  C
  C1146    1.0000 0.89050  0.51610  0.52110  Biso   1.000  C
  C1147    1.0000 0.59412  0.89828  0.04428  Biso   1.000  C
  C1148    1.0000 0.54510  0.90210  0.02970  Biso   1.000  C
  C1149    1.0000 0.51610  0.89050  0.07230  Biso   1.000  C
  C1150    1.0000 0.04428  0.46332  0.59412  Biso   1.000  C
  C1151    1.0000 0.02970  0.52310  0.54510  Biso   1.000  C
  C1152    1.0000 0.07230  0.52110  0.51610  Biso   1.000  C
  C1153    1.0000 0.60172  0.03668  0.90588  Biso   1.000  C
  C1154    1.0000 0.59790  0.97690  0.95490  Biso   1.000  C
  C1155    1.0000 0.60950  0.97890  0.98390  Biso   1.000  C
  C1156    1.0000 0.03668  0.60172  0.45572  Biso   1.000  C
  C1157    1.0000 0.97690  0.59790  0.47030  Biso   1.000  C
  C1158    1.0000 0.97890  0.60950  0.42770  Biso   1.000  C
  C1159    1.0000 0.45572  0.90588  0.03668  Biso   1.000  C
  C1160    1.0000 0.47030  0.95490  0.97690  Biso   1.000  C
  C1161    1.0000 0.42770  0.98390  0.97890  Biso   1.000  C
  C1162    1.0000 0.90588  0.45572  0.60172  Biso   1.000  C
  C1163    1.0000 0.95490  0.47030  0.59790  Biso   1.000  C
  C1164    1.0000 0.98390  0.42770  0.60950  Biso   1.000  C
  C1165    1.0000 0.90588  0.03668  0.45572  Biso   1.000  C
  C1166    1.0000 0.95490  0.97690  0.47030  Biso   1.000  C
  C1167    1.0000 0.98390  0.97890  0.42770  Biso   1.000  C
  C1168    1.0000 0.45572  0.60172  0.90588  Biso   1.000  C
  C1169    1.0000 0.47030  0.59790  0.95490  Biso   1.000  C
  C1170    1.0000 0.42770  0.60950  0.98390  Biso   1.000  C
  C1171    1.0000 0.03668  0.90588  0.60172  Biso   1.000  C
  C1172    1.0000 0.97690  0.95490  0.59790  Biso   1.000  C
  C1173    1.0000 0.97890  0.98390  0.60950  Biso   1.000  C
  C1174    1.0000 0.60172  0.45572  0.03668  Biso   1.000  C
  C1175    1.0000 0.59790  0.47030  0.97690  Biso   1.000  C
  C1176    1.0000 0.60950  0.42770  0.97890  Biso   1.000  C
  C1177    1.0000 0.45572  0.03668  0.60172  Biso   1.000  C
  C1178    1.0000 0.47030  0.97690  0.59790  Biso   1.000  C
  C1179    1.0000 0.42770  0.97890  0.60950  Biso   1.000  C
  C1180    1.0000 0.90588  0.60172  0.03668  Biso   1.000  C
  C1181    1.0000 0.95490  0.59790  0.97690  Biso   1.000  C
  C1182    1.0000 0.98390  0.60950  0.97890  Biso   1.000  C
  C1183    1.0000 0.60172  0.90588  0.45572  Biso   1.000  C
  C1184    1.0000 0.59790  0.95490  0.47030  Biso   1.000  C
  C1185    1.0000 0.60950  0.98390  0.42770  Biso   1.000  C
  C1186    1.0000 0.03668  0.45572  0.90588  Biso   1.000  C
  C1187    1.0000 0.97690  0.47030  0.95490  Biso   1.000  C
  C1188    1.0000 0.97890  0.42770  0.98390  Biso   1.000  C
  C1189    1.0000 0.25000  0.25000  0.25000  Biso   1.000  C
  C1190    1.0000 0.75000  0.75000  0.75000  Biso   1.000  C
  O1       1.0000 0.25814  0.76796  0.24237  Biso   1.000  O
  O2       1.0000 0.78842  0.23768  0.71209  Biso   1.000  O
  O3       1.0000 0.23844  0.68770  0.26207  Biso   1.000  O
  O4       1.0000 0.70817  0.21798  0.79235  Biso   1.000  O
  O5       1.0000 0.25814  0.21798  0.71209  Biso   1.000  O
  O6       1.0000 0.78842  0.68770  0.24237  Biso   1.000  O
  O7       1.0000 0.23844  0.23768  0.79235  Biso   1.000  O
  O8       1.0000 0.70817  0.76796  0.26207  Biso   1.000  O
  O9       1.0000 0.25814  0.68770  0.79235  Biso   1.000  O
  O10      1.0000 0.78842  0.21798  0.26207  Biso   1.000  O
  O11      1.0000 0.23844  0.76796  0.71209  Biso   1.000  O
  O12      1.0000 0.70817  0.23768  0.24237  Biso   1.000  O
  O13      1.0000 0.25851  0.79368  0.98173  Biso   1.000  O
  O14      1.0000 0.27478  0.84823  0.02478  Biso   1.000  O
  O15      1.0000 0.27954  0.82205  0.09540  Biso   1.000  O
  O16      1.0000 0.24393  0.70989  0.13161  Biso   1.000  O
  O17      1.0000 0.24016  0.74140  0.06019  Biso   1.000  O
  O18      1.0000 0.81414  0.23805  0.95475  Biso   1.000  O
  O19      1.0000 0.86869  0.25431  0.84088  Biso   1.000  O
  O20      1.0000 0.84251  0.25908  0.79168  Biso   1.000  O
  O21      1.0000 0.73036  0.22347  0.89514  Biso   1.000  O
  O22      1.0000 0.76187  0.21970  0.94691  Biso   1.000  O
  O23      1.0000 0.97780  0.93036  0.26244  Biso   1.000  O
  O24      1.0000 0.02085  0.81649  0.27870  Biso   1.000  O
  O25      1.0000 0.09147  0.76729  0.28346  Biso   1.000  O
  O26      1.0000 0.12768  0.87075  0.24786  Biso   1.000  O
  O27      1.0000 0.05626  0.92252  0.24409  Biso   1.000  O
  O28      1.0000 0.95082  0.95734  0.81807  Biso   1.000  O
  O29      1.0000 0.83695  0.00039  0.87262  Biso   1.000  O
  O30      1.0000 0.78776  0.07101  0.84643  Biso   1.000  O
  O31      1.0000 0.89121  0.10722  0.73428  Biso   1.000  O
  O32      1.0000 0.94299  0.03580  0.76579  Biso   1.000  O
  O33      1.0000 0.25851  0.95734  0.95475  Biso   1.000  O
  O34      1.0000 0.27478  0.00039  0.84088  Biso   1.000  O
  O35      1.0000 0.27954  0.07101  0.79168  Biso   1.000  O
  O36      1.0000 0.24393  0.10722  0.89514  Biso   1.000  O
  O37      1.0000 0.24016  0.03580  0.94691  Biso   1.000  O
  O38      1.0000 0.81414  0.93036  0.98173  Biso   1.000  O
  O39      1.0000 0.86869  0.81649  0.02478  Biso   1.000  O
  O40      1.0000 0.84251  0.76729  0.09540  Biso   1.000  O
  O41      1.0000 0.73036  0.87075  0.13161  Biso   1.000  O
  O42      1.0000 0.76187  0.92252  0.06019  Biso   1.000  O
  O43      1.0000 0.97780  0.23805  0.81807  Biso   1.000  O
  O44      1.0000 0.02085  0.25431  0.87262  Biso   1.000  O
  O45      1.0000 0.09147  0.25908  0.84643  Biso   1.000  O
  O46      1.0000 0.12768  0.22347  0.73428  Biso   1.000  O
  O47      1.0000 0.05626  0.21970  0.76579  Biso   1.000  O
  O48      1.0000 0.95082  0.79368  0.26244  Biso   1.000  O
  O49      1.0000 0.83695  0.84823  0.27870  Biso   1.000  O
  O50      1.0000 0.78776  0.82205  0.28346  Biso   1.000  O
  O51      1.0000 0.89121  0.70989  0.24786  Biso   1.000  O
  O52      1.0000 0.94299  0.74140  0.24409  Biso   1.000  O
  O53      1.0000 0.25851  0.93036  0.81807  Biso   1.000  O
  O54      1.0000 0.27478  0.81649  0.87262  Biso   1.000  O
  O55      1.0000 0.27954  0.76729  0.84643  Biso   1.000  O
  O56      1.0000 0.24393  0.87075  0.73428  Biso   1.000  O
  O57      1.0000 0.24016  0.92252  0.76579  Biso   1.000  O
  O58      1.0000 0.81414  0.95734  0.26244  Biso   1.000  O
  O59      1.0000 0.86869  0.00039  0.27870  Biso   1.000  O
  O60      1.0000 0.84251  0.07101  0.28346  Biso   1.000  O
  O61      1.0000 0.73036  0.10722  0.24786  Biso   1.000  O
  O62      1.0000 0.76187  0.03580  0.24409  Biso   1.000  O
  O63      1.0000 0.97780  0.79368  0.95475  Biso   1.000  O
  O64      1.0000 0.02085  0.84823  0.84088  Biso   1.000  O
  O65      1.0000 0.09147  0.82205  0.79168  Biso   1.000  O
  O66      1.0000 0.12768  0.70989  0.89514  Biso   1.000  O
  O67      1.0000 0.05626  0.74140  0.94691  Biso   1.000  O
  O68      1.0000 0.95082  0.23805  0.98173  Biso   1.000  O
  O69      1.0000 0.83695  0.25431  0.02478  Biso   1.000  O
  O70      1.0000 0.78776  0.25908  0.09540  Biso   1.000  O
  O71      1.0000 0.89121  0.22347  0.13161  Biso   1.000  O
  O72      1.0000 0.94299  0.21970  0.06019  Biso   1.000  O
  O73      1.0000 0.23808  0.66198  0.52271  Biso   1.000  O
  O74      1.0000 0.22181  0.60743  0.47966  Biso   1.000  O
  O75      1.0000 0.21705  0.63362  0.40904  Biso   1.000  O
  O76      1.0000 0.25266  0.74577  0.37283  Biso   1.000  O
  O77      1.0000 0.25643  0.71426  0.44425  Biso   1.000  O
  O78      1.0000 0.68245  0.21761  0.54969  Biso   1.000  O
  O79      1.0000 0.62789  0.20135  0.66356  Biso   1.000  O
  O80      1.0000 0.65408  0.19659  0.71276  Biso   1.000  O
  O81      1.0000 0.76623  0.23220  0.60930  Biso   1.000  O
  O82      1.0000 0.73472  0.23596  0.55753  Biso   1.000  O
  O83      1.0000 0.51878  0.52530  0.24200  Biso   1.000  O
  O84      1.0000 0.47574  0.63917  0.22574  Biso   1.000  O
  O85      1.0000 0.40511  0.68837  0.22098  Biso   1.000  O
  O86      1.0000 0.36891  0.58491  0.25658  Biso   1.000  O
  O87      1.0000 0.44033  0.53314  0.26035  Biso   1.000  O
  O88      1.0000 0.54576  0.49832  0.68637  Biso   1.000  O
  O89      1.0000 0.65963  0.45527  0.63182  Biso   1.000  O
  O90      1.0000 0.70883  0.38465  0.65801  Biso   1.000  O
  O91      1.0000 0.60538  0.34845  0.77016  Biso   1.000  O
  O92      1.0000 0.55360  0.41986  0.73865  Biso   1.000  O
  O93      1.0000 0.23808  0.49832  0.54969  Biso   1.000  O
  O94      1.0000 0.22181  0.45527  0.66356  Biso   1.000  O
  O95      1.0000 0.21705  0.38465  0.71276  Biso   1.000  O
  O96      1.0000 0.25266  0.34845  0.60930  Biso   1.000  O
  O97      1.0000 0.25643  0.41986  0.55753  Biso   1.000  O
  O98      1.0000 0.68245  0.52530  0.52271  Biso   1.000  O
  O99      1.0000 0.62789  0.63917  0.47966  Biso   1.000  O
  O100     1.0000 0.65408  0.68837  0.40904  Biso   1.000  O
  O101     1.0000 0.76623  0.58491  0.37283  Biso   1.000  O
  O102     1.0000 0.73472  0.53314  0.44425  Biso   1.000  O
  O103     1.0000 0.51878  0.21761  0.68637  Biso   1.000  O
  O104     1.0000 0.47574  0.20135  0.63182  Biso   1.000  O
  O105     1.0000 0.40511  0.19659  0.65801  Biso   1.000  O
  O106     1.0000 0.36891  0.23220  0.77016  Biso   1.000  O
  O107     1.0000 0.44033  0.23596  0.73865  Biso   1.000  O
  O108     1.0000 0.54576  0.66198  0.24200  Biso   1.000  O
  O109     1.0000 0.65963  0.60743  0.22574  Biso   1.000  O
  O110     1.0000 0.70883  0.63362  0.22098  Biso   1.000  O
  O111     1.0000 0.60538  0.74577  0.25658  Biso   1.000  O
  O112     1.0000 0.55360  0.71426  0.26035  Biso   1.000  O
  O113     1.0000 0.23808  0.52530  0.68637  Biso   1.000  O
  O114     1.0000 0.22181  0.63917  0.63182  Biso   1.000  O
  O115     1.0000 0.21705  0.68837  0.65801  Biso   1.000  O
  O116     1.0000 0.25266  0.58491  0.77016  Biso   1.000  O
  O117     1.0000 0.25643  0.53314  0.73865  Biso   1.000  O
  O118     1.0000 0.68245  0.49832  0.24200  Biso   1.000  O
  O119     1.0000 0.62789  0.45527  0.22574  Biso   1.000  O
  O120     1.0000 0.65408  0.38465  0.22098  Biso   1.000  O
  O121     1.0000 0.76623  0.34845  0.25658  Biso   1.000  O
  O122     1.0000 0.73472  0.41986  0.26035  Biso   1.000  O
  O123     1.0000 0.51878  0.66198  0.54969  Biso   1.000  O
  O124     1.0000 0.47574  0.60743  0.66356  Biso   1.000  O
  O125     1.0000 0.40511  0.63362  0.71276  Biso   1.000  O
  O126     1.0000 0.36891  0.74577  0.60930  Biso   1.000  O
  O127     1.0000 0.44033  0.71426  0.55753  Biso   1.000  O
  O128     1.0000 0.54576  0.21761  0.52271  Biso   1.000  O
  O129     1.0000 0.65963  0.20135  0.47966  Biso   1.000  O
  O130     1.0000 0.70883  0.19659  0.40904  Biso   1.000  O
  O131     1.0000 0.60538  0.23220  0.37283  Biso   1.000  O
  O132     1.0000 0.55360  0.23596  0.44425  Biso   1.000  O
  O133     1.0000 0.25504  0.85547  0.95108  Biso   1.000  O
  O134     1.0000 0.25702  0.79854  0.03380  Biso   1.000  O
  O135     1.0000 0.26813  0.82095  0.04650  Biso   1.000  O
  O136     1.0000 0.27022  0.80578  0.08905  Biso   1.000  O
  O137     1.0000 0.25891  0.76670  0.12436  Biso   1.000  O
  O138     1.0000 0.24978  0.74567  0.10988  Biso   1.000  O
  O139     1.0000 0.24770  0.75906  0.06673  Biso   1.000  O
  O140     1.0000 0.26010  0.75598  0.16959  Biso   1.000  O
  O141     1.0000 0.87594  0.23458  0.92708  Biso   1.000  O
  O142     1.0000 0.81900  0.23656  0.89930  Biso   1.000  O
  O143     1.0000 0.84142  0.24767  0.85308  Biso   1.000  O
  O144     1.0000 0.82624  0.24975  0.82362  Biso   1.000  O
  O145     1.0000 0.78716  0.23844  0.83870  Biso   1.000  O
  O146     1.0000 0.76613  0.22932  0.88333  Biso   1.000  O
  O147     1.0000 0.77952  0.22724  0.91517  Biso   1.000  O
  O148     1.0000 0.77645  0.23963  0.80299  Biso   1.000  O
  O149     1.0000 0.94715  0.90269  0.25896  Biso   1.000  O
  O150     1.0000 0.02988  0.87491  0.26095  Biso   1.000  O
  O151     1.0000 0.04257  0.82869  0.27206  Biso   1.000  O
  O152     1.0000 0.08513  0.79923  0.27414  Biso   1.000  O
  O153     1.0000 0.12044  0.81431  0.26283  Biso   1.000  O
  O154     1.0000 0.10596  0.85894  0.25371  Biso   1.000  O
  O155     1.0000 0.06281  0.89078  0.25162  Biso   1.000  O
  O156     1.0000 0.16567  0.77860  0.26402  Biso   1.000  O
  O157     1.0000 0.92315  0.92669  0.87986  Biso   1.000  O
  O158     1.0000 0.89538  0.00941  0.82293  Biso   1.000  O
  O159     1.0000 0.84915  0.02211  0.84534  Biso   1.000  O
  O160     1.0000 0.81969  0.06466  0.83017  Biso   1.000  O
  O161     1.0000 0.83477  0.09998  0.79109  Biso   1.000  O
  O162     1.0000 0.87941  0.08549  0.77006  Biso   1.000  O
  O163     1.0000 0.91125  0.04235  0.78345  Biso   1.000  O
  O164     1.0000 0.79906  0.14521  0.78037  Biso   1.000  O
  O165     1.0000 0.25504  0.92669  0.92708  Biso   1.000  O
  O166     1.0000 0.25702  0.00941  0.89930  Biso   1.000  O
  O167     1.0000 0.26813  0.02211  0.85308  Biso   1.000  O
  O168     1.0000 0.27022  0.06466  0.82362  Biso   1.000  O
  O169     1.0000 0.25891  0.09998  0.83870  Biso   1.000  O
  O170     1.0000 0.24978  0.08549  0.88333  Biso   1.000  O
  O171     1.0000 0.24770  0.04235  0.91517  Biso   1.000  O
  O172     1.0000 0.26010  0.14521  0.80299  Biso   1.000  O
  O173     1.0000 0.87594  0.90269  0.95108  Biso   1.000  O
  O174     1.0000 0.81900  0.87491  0.03380  Biso   1.000  O
  O175     1.0000 0.84142  0.82869  0.04650  Biso   1.000  O
  O176     1.0000 0.82624  0.79923  0.08905  Biso   1.000  O
  O177     1.0000 0.78716  0.81431  0.12436  Biso   1.000  O
  O178     1.0000 0.76613  0.85894  0.10988  Biso   1.000  O
  O179     1.0000 0.77952  0.89078  0.06673  Biso   1.000  O
  O180     1.0000 0.77645  0.77860  0.16959  Biso   1.000  O
  O181     1.0000 0.94715  0.23458  0.87986  Biso   1.000  O
  O182     1.0000 0.02988  0.23656  0.82293  Biso   1.000  O
  O183     1.0000 0.04257  0.24767  0.84534  Biso   1.000  O
  O184     1.0000 0.08513  0.24975  0.83017  Biso   1.000  O
  O185     1.0000 0.12044  0.23844  0.79109  Biso   1.000  O
  O186     1.0000 0.10596  0.22932  0.77006  Biso   1.000  O
  O187     1.0000 0.06281  0.22724  0.78345  Biso   1.000  O
  O188     1.0000 0.16567  0.23963  0.78037  Biso   1.000  O
  O189     1.0000 0.92315  0.85547  0.25896  Biso   1.000  O
  O190     1.0000 0.89538  0.79854  0.26095  Biso   1.000  O
  O191     1.0000 0.84915  0.82095  0.27206  Biso   1.000  O
  O192     1.0000 0.81969  0.80578  0.27414  Biso   1.000  O
  O193     1.0000 0.83477  0.76670  0.26283  Biso   1.000  O
  O194     1.0000 0.87941  0.74567  0.25371  Biso   1.000  O
  O195     1.0000 0.91125  0.75906  0.25162  Biso   1.000  O
  O196     1.0000 0.79906  0.75598  0.26402  Biso   1.000  O
  O197     1.0000 0.25504  0.90269  0.87986  Biso   1.000  O
  O198     1.0000 0.25702  0.87491  0.82293  Biso   1.000  O
  O199     1.0000 0.26813  0.82869  0.84534  Biso   1.000  O
  O200     1.0000 0.27021  0.79923  0.83017  Biso   1.000  O
  O201     1.0000 0.25891  0.81431  0.79109  Biso   1.000  O
  O202     1.0000 0.24978  0.85894  0.77006  Biso   1.000  O
  O203     1.0000 0.24770  0.89078  0.78345  Biso   1.000  O
  O204     1.0000 0.26010  0.77860  0.78037  Biso   1.000  O
  O205     1.0000 0.87594  0.92669  0.25896  Biso   1.000  O
  O206     1.0000 0.81900  0.00941  0.26095  Biso   1.000  O
  O207     1.0000 0.84142  0.02211  0.27206  Biso   1.000  O
  O208     1.0000 0.82624  0.06466  0.27414  Biso   1.000  O
  O209     1.0000 0.78716  0.09998  0.26283  Biso   1.000  O
  O210     1.0000 0.76613  0.08549  0.25371  Biso   1.000  O
  O211     1.0000 0.77952  0.04235  0.25162  Biso   1.000  O
  O212     1.0000 0.77645  0.14521  0.26402  Biso   1.000  O
  O213     1.0000 0.94715  0.85547  0.92708  Biso   1.000  O
  O214     1.0000 0.02988  0.79854  0.89930  Biso   1.000  O
  O215     1.0000 0.04257  0.82095  0.85308  Biso   1.000  O
  O216     1.0000 0.08513  0.80578  0.82362  Biso   1.000  O
  O217     1.0000 0.12044  0.76670  0.83870  Biso   1.000  O
  O218     1.0000 0.10596  0.74567  0.88333  Biso   1.000  O
  O219     1.0000 0.06281  0.75906  0.91517  Biso   1.000  O
  O220     1.0000 0.16567  0.75598  0.80299  Biso   1.000  O
  O221     1.0000 0.92315  0.23458  0.95108  Biso   1.000  O
  O222     1.0000 0.89538  0.23656  0.03380  Biso   1.000  O
  O223     1.0000 0.84915  0.24767  0.04650  Biso   1.000  O
  O224     1.0000 0.81969  0.24975  0.08905  Biso   1.000  O
  O225     1.0000 0.83477  0.23844  0.12436  Biso   1.000  O
  O226     1.0000 0.87941  0.22932  0.10988  Biso   1.000  O
  O227     1.0000 0.91125  0.22724  0.06673  Biso   1.000  O
  O228     1.0000 0.79906  0.23963  0.16959  Biso   1.000  O
  O229     1.0000 0.24155  0.60019  0.55336  Biso   1.000  O
  O230     1.0000 0.23957  0.65712  0.47064  Biso   1.000  O
  O231     1.0000 0.22846  0.63471  0.45794  Biso   1.000  O
  O232     1.0000 0.22637  0.64988  0.41539  Biso   1.000  O
  O233     1.0000 0.23768  0.68896  0.38008  Biso   1.000  O
  O234     1.0000 0.24681  0.70999  0.39456  Biso   1.000  O
  O235     1.0000 0.24889  0.69660  0.43770  Biso   1.000  O
  O236     1.0000 0.23649  0.69968  0.33484  Biso   1.000  O
  O237     1.0000 0.62065  0.22109  0.57736  Biso   1.000  O
  O238     1.0000 0.67759  0.21910  0.60514  Biso   1.000  O
  O239     1.0000 0.65517  0.20799  0.65136  Biso   1.000  O
  O240     1.0000 0.67035  0.20591  0.68082  Biso   1.000  O
  O241     1.0000 0.70943  0.21722  0.66574  Biso   1.000  O
  O242     1.0000 0.73046  0.22634  0.62111  Biso   1.000  O
  O243     1.0000 0.71707  0.22843  0.58927  Biso   1.000  O
  O244     1.0000 0.72014  0.21603  0.70145  Biso   1.000  O
  O245     1.0000 0.54943  0.55298  0.24547  Biso   1.000  O
  O246     1.0000 0.46671  0.58075  0.24349  Biso   1.000  O
  O247     1.0000 0.45401  0.62697  0.23238  Biso   1.000  O
  O248     1.0000 0.41146  0.65643  0.23030  Biso   1.000  O
  O249     1.0000 0.37615  0.64135  0.24161  Biso   1.000  O
  O250     1.0000 0.39063  0.59672  0.25073  Biso   1.000  O
  O251     1.0000 0.43378  0.56488  0.25281  Biso   1.000  O
  O252     1.0000 0.33092  0.67706  0.24042  Biso   1.000  O
  O253     1.0000 0.57344  0.52897  0.62458  Biso   1.000  O
  O254     1.0000 0.60121  0.44625  0.68151  Biso   1.000  O
  O255     1.0000 0.64743  0.43355  0.65910  Biso   1.000  O
  O256     1.0000 0.67689  0.39100  0.67427  Biso   1.000  O
  O257     1.0000 0.66182  0.35569  0.71335  Biso   1.000  O
  O258     1.0000 0.61718  0.37017  0.73438  Biso   1.000  O
  O259     1.0000 0.58534  0.41332  0.72099  Biso   1.000  O
  O260     1.0000 0.69752  0.31046  0.72407  Biso   1.000  O
  O261     1.0000 0.24155  0.52897  0.57736  Biso   1.000  O
  O262     1.0000 0.23957  0.44625  0.60514  Biso   1.000  O
  O263     1.0000 0.22846  0.43355  0.65136  Biso   1.000  O
  O264     1.0000 0.22637  0.39100  0.68082  Biso   1.000  O
  O265     1.0000 0.23768  0.35569  0.66574  Biso   1.000  O
  O266     1.0000 0.24681  0.37017  0.62111  Biso   1.000  O
  O267     1.0000 0.24889  0.41332  0.58927  Biso   1.000  O
  O268     1.0000 0.23649  0.31046  0.70145  Biso   1.000  O
  O269     1.0000 0.62065  0.55298  0.55336  Biso   1.000  O
  O270     1.0000 0.67759  0.58075  0.47064  Biso   1.000  O
  O271     1.0000 0.65517  0.62697  0.45794  Biso   1.000  O
  O272     1.0000 0.67035  0.65643  0.41539  Biso   1.000  O
  O273     1.0000 0.70943  0.64135  0.38008  Biso   1.000  O
  O274     1.0000 0.73046  0.59672  0.39456  Biso   1.000  O
  O275     1.0000 0.71707  0.56488  0.43770  Biso   1.000  O
  O276     1.0000 0.72014  0.67706  0.33484  Biso   1.000  O
  O277     1.0000 0.54943  0.22109  0.62458  Biso   1.000  O
  O278     1.0000 0.46671  0.21910  0.68151  Biso   1.000  O
  O279     1.0000 0.45401  0.20799  0.65910  Biso   1.000  O
  O280     1.0000 0.41146  0.20591  0.67427  Biso   1.000  O
  O281     1.0000 0.37615  0.21722  0.71335  Biso   1.000  O
  O282     1.0000 0.39063  0.22634  0.73438  Biso   1.000  O
  O283     1.0000 0.43378  0.22843  0.72099  Biso   1.000  O
  O284     1.0000 0.33092  0.21603  0.72407  Biso   1.000  O
  O285     1.0000 0.57344  0.60019  0.24547  Biso   1.000  O
  O286     1.0000 0.60121  0.65712  0.24349  Biso   1.000  O
  O287     1.0000 0.64743  0.63471  0.23238  Biso   1.000  O
  O288     1.0000 0.67689  0.64988  0.23030  Biso   1.000  O
  O289     1.0000 0.66182  0.68896  0.24161  Biso   1.000  O
  O290     1.0000 0.61718  0.70999  0.25073  Biso   1.000  O
  O291     1.0000 0.58534  0.69660  0.25281  Biso   1.000  O
  O292     1.0000 0.69752  0.69968  0.24042  Biso   1.000  O
  O293     1.0000 0.24155  0.55298  0.62458  Biso   1.000  O
  O294     1.0000 0.23957  0.58075  0.68151  Biso   1.000  O
  O295     1.0000 0.22846  0.62697  0.65910  Biso   1.000  O
  O296     1.0000 0.22637  0.65643  0.67427  Biso   1.000  O
  O297     1.0000 0.23768  0.64135  0.71335  Biso   1.000  O
  O298     1.0000 0.24681  0.59672  0.73438  Biso   1.000  O
  O299     1.0000 0.24889  0.56488  0.72099  Biso   1.000  O
  O300     1.0000 0.23649  0.67706  0.72407  Biso   1.000  O
  O301     1.0000 0.62065  0.52897  0.24547  Biso   1.000  O
  O302     1.0000 0.67759  0.44625  0.24349  Biso   1.000  O
  O303     1.0000 0.65517  0.43355  0.23238  Biso   1.000  O
  O304     1.0000 0.67035  0.39100  0.23030  Biso   1.000  O
  O305     1.0000 0.70943  0.35569  0.24161  Biso   1.000  O
  O306     1.0000 0.73046  0.37017  0.25073  Biso   1.000  O
  O307     1.0000 0.71707  0.41332  0.25281  Biso   1.000  O
  O308     1.0000 0.72014  0.31046  0.24042  Biso   1.000  O
  O309     1.0000 0.54943  0.60019  0.57736  Biso   1.000  O
  O310     1.0000 0.46671  0.65712  0.60514  Biso   1.000  O
  O311     1.0000 0.45401  0.63471  0.65136  Biso   1.000  O
  O312     1.0000 0.41146  0.64988  0.68082  Biso   1.000  O
  O313     1.0000 0.37615  0.68896  0.66574  Biso   1.000  O
  O314     1.0000 0.39063  0.70999  0.62111  Biso   1.000  O
  O315     1.0000 0.43378  0.69660  0.58927  Biso   1.000  O
  O316     1.0000 0.33092  0.69968  0.70145  Biso   1.000  O
  O317     1.0000 0.57344  0.22109  0.55336  Biso   1.000  O
  O318     1.0000 0.60121  0.21910  0.47064  Biso   1.000  O
  O319     1.0000 0.64743  0.20799  0.45794  Biso   1.000  O
  O320     1.0000 0.67689  0.20591  0.41539  Biso   1.000  O
  O321     1.0000 0.66182  0.21722  0.38008  Biso   1.000  O
  O322     1.0000 0.61718  0.22634  0.39456  Biso   1.000  O
  O323     1.0000 0.58534  0.22843  0.43770  Biso   1.000  O
  O324     1.0000 0.69752  0.21603  0.33484  Biso   1.000  O
  O325     1.0000 0.25643  0.88781  0.96318  Biso   1.000  O
  O326     1.0000 0.25702  0.81540  0.98798  Biso   1.000  O
  O327     1.0000 0.90827  0.23596  0.88125  Biso   1.000  O
  O328     1.0000 0.83586  0.23656  0.92827  Biso   1.000  O
  O329     1.0000 0.95925  0.85686  0.26035  Biso   1.000  O
  O330     1.0000 0.98405  0.90388  0.26095  Biso   1.000  O
  O331     1.0000 0.87732  0.93879  0.91220  Biso   1.000  O
  O332     1.0000 0.92434  0.96359  0.83979  Biso   1.000  O
  O333     1.0000 0.25643  0.93879  0.88125  Biso   1.000  O
  O334     1.0000 0.25702  0.96359  0.92827  Biso   1.000  O
  O335     1.0000 0.90827  0.85686  0.96318  Biso   1.000  O
  O336     1.0000 0.83586  0.90388  0.98798  Biso   1.000  O
  O337     1.0000 0.95925  0.23596  0.91220  Biso   1.000  O
  O338     1.0000 0.98405  0.23656  0.83979  Biso   1.000  O
  O339     1.0000 0.87732  0.88781  0.26035  Biso   1.000  O
  O340     1.0000 0.92434  0.81540  0.26095  Biso   1.000  O
  O341     1.0000 0.25643  0.85686  0.91220  Biso   1.000  O
  O342     1.0000 0.25702  0.90388  0.83979  Biso   1.000  O
  O343     1.0000 0.90827  0.93879  0.26035  Biso   1.000  O
  O344     1.0000 0.83586  0.96359  0.26095  Biso   1.000  O
  O345     1.0000 0.95925  0.88781  0.88125  Biso   1.000  O
  O346     1.0000 0.98405  0.81540  0.92827  Biso   1.000  O
  O347     1.0000 0.87732  0.23596  0.96318  Biso   1.000  O
  O348     1.0000 0.92434  0.23656  0.98798  Biso   1.000  O
  O349     1.0000 0.24016  0.56785  0.54126  Biso   1.000  O
  O350     1.0000 0.23957  0.64026  0.51646  Biso   1.000  O
  O351     1.0000 0.58832  0.21970  0.62319  Biso   1.000  O
  O352     1.0000 0.66073  0.21910  0.57617  Biso   1.000  O
  O353     1.0000 0.53733  0.59880  0.24409  Biso   1.000  O
  O354     1.0000 0.51254  0.55178  0.24349  Biso   1.000  O
  O355     1.0000 0.61926  0.51687  0.59224  Biso   1.000  O
  O356     1.0000 0.57225  0.49207  0.66465  Biso   1.000  O
  O357     1.0000 0.24016  0.51687  0.62319  Biso   1.000  O
  O358     1.0000 0.23957  0.49207  0.57617  Biso   1.000  O
  O359     1.0000 0.58832  0.59880  0.54126  Biso   1.000  O
  O360     1.0000 0.66073  0.55178  0.51646  Biso   1.000  O
  O361     1.0000 0.53733  0.21970  0.59224  Biso   1.000  O
  O362     1.0000 0.51254  0.21910  0.66465  Biso   1.000  O
  O363     1.0000 0.61926  0.56785  0.24409  Biso   1.000  O
  O364     1.0000 0.57225  0.64026  0.24349  Biso   1.000  O
  O365     1.0000 0.24016  0.59880  0.59224  Biso   1.000  O
  O366     1.0000 0.23957  0.55178  0.66465  Biso   1.000  O
  O367     1.0000 0.58832  0.51687  0.24409  Biso   1.000  O
  O368     1.0000 0.66073  0.49207  0.24349  Biso   1.000  O
  O369     1.0000 0.53733  0.56785  0.62319  Biso   1.000  O
  O370     1.0000 0.51254  0.64026  0.57617  Biso   1.000  O
  O371     1.0000 0.61926  0.21970  0.54126  Biso   1.000  O
  O372     1.0000 0.57225  0.21910  0.51646  Biso   1.000  O
  O373     1.0000 0.27165  0.77712  0.17706  Biso   1.000  O
  O374     1.0000 0.24416  0.70826  0.20182  Biso   1.000  O
  O375     1.0000 0.79759  0.25119  0.76283  Biso   1.000  O
  O376     1.0000 0.72872  0.22369  0.82633  Biso   1.000  O
  O377     1.0000 0.17314  0.73844  0.27558  Biso   1.000  O
  O378     1.0000 0.19790  0.80194  0.24808  Biso   1.000  O
  O379     1.0000 0.75890  0.15267  0.80151  Biso   1.000  O
  O380     1.0000 0.82240  0.17743  0.73265  Biso   1.000  O
  O381     1.0000 0.27165  0.15267  0.76283  Biso   1.000  O
  O382     1.0000 0.24416  0.17743  0.82633  Biso   1.000  O
  O383     1.0000 0.79759  0.73844  0.17706  Biso   1.000  O
  O384     1.0000 0.72872  0.80194  0.20182  Biso   1.000  O
  O385     1.0000 0.17314  0.25119  0.80151  Biso   1.000  O
  O386     1.0000 0.19790  0.22369  0.73265  Biso   1.000  O
  O387     1.0000 0.75890  0.77712  0.27558  Biso   1.000  O
  O388     1.0000 0.82240  0.70826  0.24808  Biso   1.000  O
  O389     1.0000 0.27165  0.73844  0.80151  Biso   1.000  O
  O390     1.0000 0.24416  0.80194  0.73265  Biso   1.000  O
  O391     1.0000 0.79759  0.15267  0.27558  Biso   1.000  O
  O392     1.0000 0.72872  0.17743  0.24808  Biso   1.000  O
  O393     1.0000 0.17314  0.77712  0.76283  Biso   1.000  O
  O394     1.0000 0.19790  0.70826  0.82633  Biso   1.000  O
  O395     1.0000 0.75890  0.25119  0.17706  Biso   1.000  O
  O396     1.0000 0.82240  0.22369  0.20182  Biso   1.000  O
  O397     1.0000 0.22493  0.67854  0.32738  Biso   1.000  O
  O398     1.0000 0.25243  0.74741  0.30262  Biso   1.000  O
  O399     1.0000 0.69900  0.20447  0.74161  Biso   1.000  O
  O400     1.0000 0.76787  0.23197  0.67811  Biso   1.000  O
  O401     1.0000 0.32345  0.71722  0.22886  Biso   1.000  O
  O402     1.0000 0.29869  0.65372  0.25636  Biso   1.000  O
  O403     1.0000 0.73769  0.30299  0.70293  Biso   1.000  O
  O404     1.0000 0.67419  0.27823  0.77179  Biso   1.000  O
  O405     1.0000 0.22493  0.30299  0.74161  Biso   1.000  O
  O406     1.0000 0.25243  0.27823  0.67811  Biso   1.000  O
  O407     1.0000 0.69900  0.71722  0.32738  Biso   1.000  O
  O408     1.0000 0.76787  0.65372  0.30262  Biso   1.000  O
  O409     1.0000 0.32345  0.20447  0.70293  Biso   1.000  O
  O410     1.0000 0.29869  0.23197  0.77179  Biso   1.000  O
  O411     1.0000 0.73769  0.67854  0.22886  Biso   1.000  O
  O412     1.0000 0.67419  0.74741  0.25636  Biso   1.000  O
  O413     1.0000 0.22493  0.71722  0.70293  Biso   1.000  O
  O414     1.0000 0.25243  0.65372  0.77179  Biso   1.000  O
  O415     1.0000 0.69900  0.30299  0.22886  Biso   1.000  O
  O416     1.0000 0.76787  0.27823  0.25636  Biso   1.000  O
  O417     1.0000 0.32345  0.67854  0.74161  Biso   1.000  O
  O418     1.0000 0.29869  0.74741  0.67811  Biso   1.000  O
  O419     1.0000 0.73769  0.20447  0.32738  Biso   1.000  O
  O420     1.0000 0.67419  0.23197  0.30262  Biso   1.000  O
