data_image0
_cell_length_a       35.1743
_cell_length_b       35.1743
_cell_length_c       35.1743
_cell_angle_alpha    60
_cell_angle_beta     60
_cell_angle_gamma    60

_symmetry_space_group_name_H-M    "P 1"
_symmetry_int_tables_number       1

loop_
  _symmetry_equiv_pos_as_xyz
  'x, y, z'

loop_
  _atom_site_label
  _atom_site_occupancy
  _atom_site_fract_x
  _atom_site_fract_y
  _atom_site_fract_z
  _atom_site_thermal_displace_type
  _atom_site_B_iso_or_equiv
  _atom_site_type_symbol
  Ni1      1.0000 0.53315  0.05541  0.94459  Biso   1.000  Ni
  Ni2      1.0000 0.05541  0.53315  0.46685  Biso   1.000  Ni
  Ni3      1.0000 0.94459  0.46685  0.53315  Biso   1.000  Ni
  Ni4      1.0000 0.46685  0.94459  0.05541  Biso   1.000  Ni
  Ni5      1.0000 0.53315  0.94459  0.46685  Biso   1.000  Ni
  Ni6      1.0000 0.05541  0.46685  0.94459  Biso   1.000  Ni
  Ni7      1.0000 0.94459  0.53315  0.05541  Biso   1.000  Ni
  Ni8      1.0000 0.46685  0.05541  0.53315  Biso   1.000  Ni
  Ni9      1.0000 0.53315  0.46685  0.05541  Biso   1.000  Ni
  Ni10     1.0000 0.05541  0.94459  0.53315  Biso   1.000  Ni
  Ni11     1.0000 0.94459  0.05541  0.46685  Biso   1.000  Ni
  Ni12     1.0000 0.46685  0.53315  0.94459  Biso   1.000  Ni
  Ni13     1.0000 0.44459  0.96685  0.55541  Biso   1.000  Ni
  Ni14     1.0000 0.96685  0.44459  0.03315  Biso   1.000  Ni
  Ni15     1.0000 0.03315  0.55541  0.96685  Biso   1.000  Ni
  Ni16     1.0000 0.55541  0.03315  0.44459  Biso   1.000  Ni
  Ni17     1.0000 0.55541  0.96685  0.03315  Biso   1.000  Ni
  Ni18     1.0000 0.03315  0.44459  0.55541  Biso   1.000  Ni
  Ni19     1.0000 0.96685  0.55541  0.44459  Biso   1.000  Ni
  Ni20     1.0000 0.44459  0.03315  0.96685  Biso   1.000  Ni
  Ni21     1.0000 0.03315  0.96685  0.44459  Biso   1.000  Ni
  Ni22     1.0000 0.55541  0.44459  0.96685  Biso   1.000  Ni
  Ni23     1.0000 0.44459  0.55541  0.03315  Biso   1.000  Ni
  Ni24     1.0000 0.96685  0.03315  0.55541  Biso   1.000  Ni
  H1       1.0000 0.55390  0.14810  0.97710  Biso   1.000  H
  H2       1.0000 0.54890  0.03550  0.09230  Biso   1.000  H
  H3       1.0000 0.55240  0.18880  0.01540  Biso   1.000  H
  H4       1.0000 0.62260  0.03320  0.12780  Biso   1.000  H
  H5       1.0000 0.59280  0.00180  0.14480  Biso   1.000  H
  H6       1.0000 0.59640  0.01200  0.18220  Biso   1.000  H
  H7       1.0000 0.48180  0.08340  0.17820  Biso   1.000  H
  H8       1.0000 0.50930  0.04210  0.21330  Biso   1.000  H
  H9       1.0000 0.50750  0.03210  0.17470  Biso   1.000  H
  H10      1.0000 0.14810  0.55390  0.32090  Biso   1.000  H
  H11      1.0000 0.03550  0.54890  0.32330  Biso   1.000  H
  H12      1.0000 0.18880  0.55240  0.24340  Biso   1.000  H
  H13      1.0000 0.03320  0.62260  0.21640  Biso   1.000  H
  H14      1.0000 0.00180  0.59280  0.26060  Biso   1.000  H
  H15      1.0000 0.01200  0.59640  0.20940  Biso   1.000  H
  H16      1.0000 0.08340  0.48180  0.25660  Biso   1.000  H
  H17      1.0000 0.04210  0.50930  0.23530  Biso   1.000  H
  H18      1.0000 0.03210  0.50750  0.28570  Biso   1.000  H
  H19      1.0000 0.97710  0.32090  0.55390  Biso   1.000  H
  H20      1.0000 0.09230  0.32330  0.54890  Biso   1.000  H
  H21      1.0000 0.01540  0.24340  0.55240  Biso   1.000  H
  H22      1.0000 0.12780  0.21640  0.62260  Biso   1.000  H
  H23      1.0000 0.14480  0.26060  0.59280  Biso   1.000  H
  H24      1.0000 0.18220  0.20940  0.59640  Biso   1.000  H
  H25      1.0000 0.17820  0.25660  0.48180  Biso   1.000  H
  H26      1.0000 0.21330  0.23530  0.50930  Biso   1.000  H
  H27      1.0000 0.17470  0.28570  0.50750  Biso   1.000  H
  H28      1.0000 0.32090  0.97710  0.14810  Biso   1.000  H
  H29      1.0000 0.32330  0.09230  0.03550  Biso   1.000  H
  H30      1.0000 0.24340  0.01540  0.18880  Biso   1.000  H
  H31      1.0000 0.21640  0.12780  0.03320  Biso   1.000  H
  H32      1.0000 0.26060  0.14480  0.00180  Biso   1.000  H
  H33      1.0000 0.20940  0.18220  0.01200  Biso   1.000  H
  H34      1.0000 0.25660  0.17820  0.08340  Biso   1.000  H
  H35      1.0000 0.23530  0.21330  0.04210  Biso   1.000  H
  H36      1.0000 0.28570  0.17470  0.03210  Biso   1.000  H
  H37      1.0000 0.55390  0.97710  0.32090  Biso   1.000  H
  H38      1.0000 0.54890  0.09230  0.32330  Biso   1.000  H
  H39      1.0000 0.55240  0.01540  0.24340  Biso   1.000  H
  H40      1.0000 0.62260  0.12780  0.21640  Biso   1.000  H
  H41      1.0000 0.59280  0.14480  0.26060  Biso   1.000  H
  H42      1.0000 0.59640  0.18220  0.20940  Biso   1.000  H
  H43      1.0000 0.48180  0.17820  0.25660  Biso   1.000  H
  H44      1.0000 0.50930  0.21330  0.23530  Biso   1.000  H
  H45      1.0000 0.50750  0.17470  0.28570  Biso   1.000  H
  H46      1.0000 0.14810  0.32090  0.97710  Biso   1.000  H
  H47      1.0000 0.03550  0.32330  0.09230  Biso   1.000  H
  H48      1.0000 0.18880  0.24340  0.01540  Biso   1.000  H
  H49      1.0000 0.03320  0.21640  0.12780  Biso   1.000  H
  H50      1.0000 0.00180  0.26060  0.14480  Biso   1.000  H
  H51      1.0000 0.01200  0.20940  0.18220  Biso   1.000  H
  H52      1.0000 0.08340  0.25660  0.17820  Biso   1.000  H
  H53      1.0000 0.04210  0.23530  0.21330  Biso   1.000  H
  H54      1.0000 0.03210  0.28570  0.17470  Biso   1.000  H
  H55      1.0000 0.97710  0.55390  0.14810  Biso   1.000  H
  H56      1.0000 0.09230  0.54890  0.03550  Biso   1.000  H
  H57      1.0000 0.01540  0.55240  0.18880  Biso   1.000  H
  H58      1.0000 0.12780  0.62260  0.03320  Biso   1.000  H
  H59      1.0000 0.14480  0.59280  0.00180  Biso   1.000  H
  H60      1.0000 0.18220  0.59640  0.01200  Biso   1.000  H
  H61      1.0000 0.17820  0.48180  0.08340  Biso   1.000  H
  H62      1.0000 0.21330  0.50930  0.04210  Biso   1.000  H
  H63      1.0000 0.17470  0.50750  0.03210  Biso   1.000  H
  H64      1.0000 0.32090  0.14810  0.55390  Biso   1.000  H
  H65      1.0000 0.32330  0.03550  0.54890  Biso   1.000  H
  H66      1.0000 0.24340  0.18880  0.55240  Biso   1.000  H
  H67      1.0000 0.21640  0.03320  0.62260  Biso   1.000  H
  H68      1.0000 0.26060  0.00180  0.59280  Biso   1.000  H
  H69      1.0000 0.20940  0.01200  0.59640  Biso   1.000  H
  H70      1.0000 0.25660  0.08340  0.48180  Biso   1.000  H
  H71      1.0000 0.23530  0.04210  0.50930  Biso   1.000  H
  H72      1.0000 0.28570  0.03210  0.50750  Biso   1.000  H
  H73      1.0000 0.55390  0.32090  0.14810  Biso   1.000  H
  H74      1.0000 0.54890  0.32330  0.03550  Biso   1.000  H
  H75      1.0000 0.55240  0.24340  0.18880  Biso   1.000  H
  H76      1.0000 0.62260  0.21640  0.03320  Biso   1.000  H
  H77      1.0000 0.59280  0.26060  0.00180  Biso   1.000  H
  H78      1.0000 0.59640  0.20940  0.01200  Biso   1.000  H
  H79      1.0000 0.48180  0.25660  0.08340  Biso   1.000  H
  H80      1.0000 0.50930  0.23530  0.04210  Biso   1.000  H
  H81      1.0000 0.50750  0.28570  0.03210  Biso   1.000  H
  H82      1.0000 0.14810  0.97710  0.55390  Biso   1.000  H
  H83      1.0000 0.03550  0.09230  0.54890  Biso   1.000  H
  H84      1.0000 0.18880  0.01540  0.55240  Biso   1.000  H
  H85      1.0000 0.03320  0.12780  0.62260  Biso   1.000  H
  H86      1.0000 0.00180  0.14480  0.59280  Biso   1.000  H
  H87      1.0000 0.01200  0.18220  0.59640  Biso   1.000  H
  H88      1.0000 0.08340  0.17820  0.48180  Biso   1.000  H
  H89      1.0000 0.04210  0.21330  0.50930  Biso   1.000  H
  H90      1.0000 0.03210  0.17470  0.50750  Biso   1.000  H
  H91      1.0000 0.97710  0.14810  0.32090  Biso   1.000  H
  H92      1.0000 0.09230  0.03550  0.32330  Biso   1.000  H
  H93      1.0000 0.01540  0.18880  0.24340  Biso   1.000  H
  H94      1.0000 0.12780  0.03320  0.21640  Biso   1.000  H
  H95      1.0000 0.14480  0.00180  0.26060  Biso   1.000  H
  H96      1.0000 0.18220  0.01200  0.20940  Biso   1.000  H
  H97      1.0000 0.17820  0.08340  0.25660  Biso   1.000  H
  H98      1.0000 0.21330  0.04210  0.23530  Biso   1.000  H
  H99      1.0000 0.17470  0.03210  0.28570  Biso   1.000  H
  H100     1.0000 0.32090  0.55390  0.97710  Biso   1.000  H
  H101     1.0000 0.32330  0.54890  0.09230  Biso   1.000  H
  H102     1.0000 0.24340  0.55240  0.01540  Biso   1.000  H
  H103     1.0000 0.21640  0.62260  0.12780  Biso   1.000  H
  H104     1.0000 0.26060  0.59280  0.14480  Biso   1.000  H
  H105     1.0000 0.20940  0.59640  0.18220  Biso   1.000  H
  H106     1.0000 0.25660  0.48180  0.17820  Biso   1.000  H
  H107     1.0000 0.23530  0.50930  0.21330  Biso   1.000  H
  H108     1.0000 0.28570  0.50750  0.17470  Biso   1.000  H
  H109     1.0000 0.35190  0.94610  0.52290  Biso   1.000  H
  H110     1.0000 0.46450  0.95110  0.40770  Biso   1.000  H
  H111     1.0000 0.31120  0.94760  0.48460  Biso   1.000  H
  H112     1.0000 0.46680  0.87740  0.37220  Biso   1.000  H
  H113     1.0000 0.49820  0.90720  0.35520  Biso   1.000  H
  H114     1.0000 0.48800  0.90360  0.31780  Biso   1.000  H
  H115     1.0000 0.41660  0.01820  0.32180  Biso   1.000  H
  H116     1.0000 0.45790  0.99070  0.28670  Biso   1.000  H
  H117     1.0000 0.46790  0.99250  0.32530  Biso   1.000  H
  H118     1.0000 0.94610  0.35190  0.17910  Biso   1.000  H
  H119     1.0000 0.95110  0.46450  0.17670  Biso   1.000  H
  H120     1.0000 0.94760  0.31120  0.25660  Biso   1.000  H
  H121     1.0000 0.87740  0.46680  0.28360  Biso   1.000  H
  H122     1.0000 0.90720  0.49820  0.23940  Biso   1.000  H
  H123     1.0000 0.90360  0.48800  0.29060  Biso   1.000  H
  H124     1.0000 0.01820  0.41660  0.24340  Biso   1.000  H
  H125     1.0000 0.99070  0.45790  0.26470  Biso   1.000  H
  H126     1.0000 0.99250  0.46790  0.21430  Biso   1.000  H
  H127     1.0000 0.17910  0.52290  0.94610  Biso   1.000  H
  H128     1.0000 0.17670  0.40770  0.95110  Biso   1.000  H
  H129     1.0000 0.25660  0.48460  0.94760  Biso   1.000  H
  H130     1.0000 0.28360  0.37220  0.87740  Biso   1.000  H
  H131     1.0000 0.23940  0.35520  0.90720  Biso   1.000  H
  H132     1.0000 0.29060  0.31780  0.90360  Biso   1.000  H
  H133     1.0000 0.24340  0.32180  0.01820  Biso   1.000  H
  H134     1.0000 0.26470  0.28670  0.99070  Biso   1.000  H
  H135     1.0000 0.21430  0.32530  0.99250  Biso   1.000  H
  H136     1.0000 0.52290  0.17910  0.35190  Biso   1.000  H
  H137     1.0000 0.40770  0.17670  0.46450  Biso   1.000  H
  H138     1.0000 0.48460  0.25660  0.31120  Biso   1.000  H
  H139     1.0000 0.37220  0.28360  0.46680  Biso   1.000  H
  H140     1.0000 0.35520  0.23940  0.49820  Biso   1.000  H
  H141     1.0000 0.31780  0.29060  0.48800  Biso   1.000  H
  H142     1.0000 0.32180  0.24340  0.41660  Biso   1.000  H
  H143     1.0000 0.28670  0.26470  0.45790  Biso   1.000  H
  H144     1.0000 0.32530  0.21430  0.46790  Biso   1.000  H
  H145     1.0000 0.52290  0.94610  0.17910  Biso   1.000  H
  H146     1.0000 0.40770  0.95110  0.17670  Biso   1.000  H
  H147     1.0000 0.48460  0.94760  0.25660  Biso   1.000  H
  H148     1.0000 0.37220  0.87740  0.28360  Biso   1.000  H
  H149     1.0000 0.35520  0.90720  0.23940  Biso   1.000  H
  H150     1.0000 0.31780  0.90360  0.29060  Biso   1.000  H
  H151     1.0000 0.32180  0.01820  0.24340  Biso   1.000  H
  H152     1.0000 0.28670  0.99070  0.26470  Biso   1.000  H
  H153     1.0000 0.32530  0.99250  0.21430  Biso   1.000  H
  H154     1.0000 0.17910  0.35190  0.52290  Biso   1.000  H
  H155     1.0000 0.17670  0.46450  0.40770  Biso   1.000  H
  H156     1.0000 0.25660  0.31120  0.48460  Biso   1.000  H
  H157     1.0000 0.28360  0.46680  0.37220  Biso   1.000  H
  H158     1.0000 0.23940  0.49820  0.35520  Biso   1.000  H
  H159     1.0000 0.29060  0.48800  0.31780  Biso   1.000  H
  H160     1.0000 0.24340  0.41660  0.32180  Biso   1.000  H
  H161     1.0000 0.26470  0.45790  0.28670  Biso   1.000  H
  H162     1.0000 0.21430  0.46790  0.32530  Biso   1.000  H
  H163     1.0000 0.94610  0.52290  0.35190  Biso   1.000  H
  H164     1.0000 0.95110  0.40770  0.46450  Biso   1.000  H
  H165     1.0000 0.94760  0.48460  0.31120  Biso   1.000  H
  H166     1.0000 0.87740  0.37220  0.46680  Biso   1.000  H
  H167     1.0000 0.90720  0.35520  0.49820  Biso   1.000  H
  H168     1.0000 0.90360  0.31780  0.48800  Biso   1.000  H
  H169     1.0000 0.01820  0.32180  0.41660  Biso   1.000  H
  H170     1.0000 0.99070  0.28670  0.45790  Biso   1.000  H
  H171     1.0000 0.99250  0.32530  0.46790  Biso   1.000  H
  H172     1.0000 0.35190  0.17910  0.94610  Biso   1.000  H
  H173     1.0000 0.46450  0.17670  0.95110  Biso   1.000  H
  H174     1.0000 0.31120  0.25660  0.94760  Biso   1.000  H
  H175     1.0000 0.46680  0.28360  0.87740  Biso   1.000  H
  H176     1.0000 0.49820  0.23940  0.90720  Biso   1.000  H
  H177     1.0000 0.48800  0.29060  0.90360  Biso   1.000  H
  H178     1.0000 0.41660  0.24340  0.01820  Biso   1.000  H
  H179     1.0000 0.45790  0.26470  0.99070  Biso   1.000  H
  H180     1.0000 0.46790  0.21430  0.99250  Biso   1.000  H
  H181     1.0000 0.17910  0.94610  0.35190  Biso   1.000  H
  H182     1.0000 0.17670  0.95110  0.46450  Biso   1.000  H
  H183     1.0000 0.25660  0.94760  0.31120  Biso   1.000  H
  H184     1.0000 0.28360  0.87740  0.46680  Biso   1.000  H
  H185     1.0000 0.23940  0.90720  0.49820  Biso   1.000  H
  H186     1.0000 0.29060  0.90360  0.48800  Biso   1.000  H
  H187     1.0000 0.24340  0.01820  0.41660  Biso   1.000  H
  H188     1.0000 0.26470  0.99070  0.45790  Biso   1.000  H
  H189     1.0000 0.21430  0.99250  0.46790  Biso   1.000  H
  H190     1.0000 0.52290  0.35190  0.94610  Biso   1.000  H
  H191     1.0000 0.40770  0.46450  0.95110  Biso   1.000  H
  H192     1.0000 0.48460  0.31120  0.94760  Biso   1.000  H
  H193     1.0000 0.37220  0.46680  0.87740  Biso   1.000  H
  H194     1.0000 0.35520  0.49820  0.90720  Biso   1.000  H
  H195     1.0000 0.31780  0.48800  0.90360  Biso   1.000  H
  H196     1.0000 0.32180  0.41660  0.01820  Biso   1.000  H
  H197     1.0000 0.28670  0.45790  0.99070  Biso   1.000  H
  H198     1.0000 0.32530  0.46790  0.99250  Biso   1.000  H
  H199     1.0000 0.35190  0.52290  0.17910  Biso   1.000  H
  H200     1.0000 0.46450  0.40770  0.17670  Biso   1.000  H
  H201     1.0000 0.31120  0.48460  0.25660  Biso   1.000  H
  H202     1.0000 0.46680  0.37220  0.28360  Biso   1.000  H
  H203     1.0000 0.49820  0.35520  0.23940  Biso   1.000  H
  H204     1.0000 0.48800  0.31780  0.29060  Biso   1.000  H
  H205     1.0000 0.41660  0.32180  0.24340  Biso   1.000  H
  H206     1.0000 0.45790  0.28670  0.26470  Biso   1.000  H
  H207     1.0000 0.46790  0.32530  0.21430  Biso   1.000  H
  H208     1.0000 0.94610  0.17910  0.52290  Biso   1.000  H
  H209     1.0000 0.95110  0.17670  0.40770  Biso   1.000  H
  H210     1.0000 0.94760  0.25660  0.48460  Biso   1.000  H
  H211     1.0000 0.87740  0.28360  0.37220  Biso   1.000  H
  H212     1.0000 0.90720  0.23940  0.35520  Biso   1.000  H
  H213     1.0000 0.90360  0.29060  0.31780  Biso   1.000  H
  H214     1.0000 0.01820  0.24340  0.32180  Biso   1.000  H
  H215     1.0000 0.99070  0.26470  0.28670  Biso   1.000  H
  H216     1.0000 0.99250  0.21430  0.32530  Biso   1.000  H
  H217     1.0000 0.44610  0.85190  0.02290  Biso   1.000  H
  H218     1.0000 0.45110  0.96450  0.90770  Biso   1.000  H
  H219     1.0000 0.44760  0.81120  0.98460  Biso   1.000  H
  H220     1.0000 0.37740  0.96680  0.87220  Biso   1.000  H
  H221     1.0000 0.40720  0.99820  0.85520  Biso   1.000  H
  H222     1.0000 0.40360  0.98800  0.81780  Biso   1.000  H
  H223     1.0000 0.51820  0.91660  0.82180  Biso   1.000  H
  H224     1.0000 0.49070  0.95790  0.78670  Biso   1.000  H
  H225     1.0000 0.49250  0.96790  0.82530  Biso   1.000  H
  H226     1.0000 0.85190  0.44610  0.67910  Biso   1.000  H
  H227     1.0000 0.96450  0.45110  0.67670  Biso   1.000  H
  H228     1.0000 0.81120  0.44760  0.75660  Biso   1.000  H
  H229     1.0000 0.96680  0.37740  0.78360  Biso   1.000  H
  H230     1.0000 0.99820  0.40720  0.73940  Biso   1.000  H
  H231     1.0000 0.98800  0.40360  0.79060  Biso   1.000  H
  H232     1.0000 0.91660  0.51820  0.74340  Biso   1.000  H
  H233     1.0000 0.95790  0.49070  0.76470  Biso   1.000  H
  H234     1.0000 0.96790  0.49250  0.71430  Biso   1.000  H
  H235     1.0000 0.02290  0.67910  0.44610  Biso   1.000  H
  H236     1.0000 0.90770  0.67670  0.45110  Biso   1.000  H
  H237     1.0000 0.98460  0.75660  0.44760  Biso   1.000  H
  H238     1.0000 0.87220  0.78360  0.37740  Biso   1.000  H
  H239     1.0000 0.85520  0.73940  0.40720  Biso   1.000  H
  H240     1.0000 0.81780  0.79060  0.40360  Biso   1.000  H
  H241     1.0000 0.82180  0.74340  0.51820  Biso   1.000  H
  H242     1.0000 0.78670  0.76470  0.49070  Biso   1.000  H
  H243     1.0000 0.82530  0.71430  0.49250  Biso   1.000  H
  H244     1.0000 0.67910  0.02290  0.85190  Biso   1.000  H
  H245     1.0000 0.67670  0.90770  0.96450  Biso   1.000  H
  H246     1.0000 0.75660  0.98460  0.81120  Biso   1.000  H
  H247     1.0000 0.78360  0.87220  0.96680  Biso   1.000  H
  H248     1.0000 0.73940  0.85520  0.99820  Biso   1.000  H
  H249     1.0000 0.79060  0.81780  0.98800  Biso   1.000  H
  H250     1.0000 0.74340  0.82180  0.91660  Biso   1.000  H
  H251     1.0000 0.76470  0.78670  0.95790  Biso   1.000  H
  H252     1.0000 0.71430  0.82530  0.96790  Biso   1.000  H
  H253     1.0000 0.44610  0.02290  0.67910  Biso   1.000  H
  H254     1.0000 0.45110  0.90770  0.67670  Biso   1.000  H
  H255     1.0000 0.44760  0.98460  0.75660  Biso   1.000  H
  H256     1.0000 0.37740  0.87220  0.78360  Biso   1.000  H
  H257     1.0000 0.40720  0.85520  0.73940  Biso   1.000  H
  H258     1.0000 0.40360  0.81780  0.79060  Biso   1.000  H
  H259     1.0000 0.51820  0.82180  0.74340  Biso   1.000  H
  H260     1.0000 0.49070  0.78670  0.76470  Biso   1.000  H
  H261     1.0000 0.49250  0.82530  0.71430  Biso   1.000  H
  H262     1.0000 0.85190  0.67910  0.02290  Biso   1.000  H
  H263     1.0000 0.96450  0.67670  0.90770  Biso   1.000  H
  H264     1.0000 0.81120  0.75660  0.98460  Biso   1.000  H
  H265     1.0000 0.96680  0.78360  0.87220  Biso   1.000  H
  H266     1.0000 0.99820  0.73940  0.85520  Biso   1.000  H
  H267     1.0000 0.98800  0.79060  0.81780  Biso   1.000  H
  H268     1.0000 0.91660  0.74340  0.82180  Biso   1.000  H
  H269     1.0000 0.95790  0.76470  0.78670  Biso   1.000  H
  H270     1.0000 0.96790  0.71430  0.82530  Biso   1.000  H
  H271     1.0000 0.02290  0.44610  0.85190  Biso   1.000  H
  H272     1.0000 0.90770  0.45110  0.96450  Biso   1.000  H
  H273     1.0000 0.98460  0.44760  0.81120  Biso   1.000  H
  H274     1.0000 0.87220  0.37740  0.96680  Biso   1.000  H
  H275     1.0000 0.85520  0.40720  0.99820  Biso   1.000  H
  H276     1.0000 0.81780  0.40360  0.98800  Biso   1.000  H
  H277     1.0000 0.82180  0.51820  0.91660  Biso   1.000  H
  H278     1.0000 0.78670  0.49070  0.95790  Biso   1.000  H
  H279     1.0000 0.82530  0.49250  0.96790  Biso   1.000  H
  H280     1.0000 0.67910  0.85190  0.44610  Biso   1.000  H
  H281     1.0000 0.67670  0.96450  0.45110  Biso   1.000  H
  H282     1.0000 0.75660  0.81120  0.44760  Biso   1.000  H
  H283     1.0000 0.78360  0.96680  0.37740  Biso   1.000  H
  H284     1.0000 0.73940  0.99820  0.40720  Biso   1.000  H
  H285     1.0000 0.79060  0.98800  0.40360  Biso   1.000  H
  H286     1.0000 0.74340  0.91660  0.51820  Biso   1.000  H
  H287     1.0000 0.76470  0.95790  0.49070  Biso   1.000  H
  H288     1.0000 0.71430  0.96790  0.49250  Biso   1.000  H
  H289     1.0000 0.44610  0.67910  0.85190  Biso   1.000  H
  H290     1.0000 0.45110  0.67670  0.96450  Biso   1.000  H
  H291     1.0000 0.44760  0.75660  0.81120  Biso   1.000  H
  H292     1.0000 0.37740  0.78360  0.96680  Biso   1.000  H
  H293     1.0000 0.40720  0.73940  0.99820  Biso   1.000  H
  H294     1.0000 0.40360  0.79060  0.98800  Biso   1.000  H
  H295     1.0000 0.51820  0.74340  0.91660  Biso   1.000  H
  H296     1.0000 0.49070  0.76470  0.95790  Biso   1.000  H
  H297     1.0000 0.49250  0.71430  0.96790  Biso   1.000  H
  H298     1.0000 0.85190  0.02290  0.44610  Biso   1.000  H
  H299     1.0000 0.96450  0.90770  0.45110  Biso   1.000  H
  H300     1.0000 0.81120  0.98460  0.44760  Biso   1.000  H
  H301     1.0000 0.96680  0.87220  0.37740  Biso   1.000  H
  H302     1.0000 0.99820  0.85520  0.40720  Biso   1.000  H
  H303     1.0000 0.98800  0.81780  0.40360  Biso   1.000  H
  H304     1.0000 0.91660  0.82180  0.51820  Biso   1.000  H
  H305     1.0000 0.95790  0.78670  0.49070  Biso   1.000  H
  H306     1.0000 0.96790  0.82530  0.49250  Biso   1.000  H
  H307     1.0000 0.02290  0.85190  0.67910  Biso   1.000  H
  H308     1.0000 0.90770  0.96450  0.67670  Biso   1.000  H
  H309     1.0000 0.98460  0.81120  0.75660  Biso   1.000  H
  H310     1.0000 0.87220  0.96680  0.78360  Biso   1.000  H
  H311     1.0000 0.85520  0.99820  0.73940  Biso   1.000  H
  H312     1.0000 0.81780  0.98800  0.79060  Biso   1.000  H
  H313     1.0000 0.82180  0.91660  0.74340  Biso   1.000  H
  H314     1.0000 0.78670  0.95790  0.76470  Biso   1.000  H
  H315     1.0000 0.82530  0.96790  0.71430  Biso   1.000  H
  H316     1.0000 0.67910  0.44610  0.02290  Biso   1.000  H
  H317     1.0000 0.67670  0.45110  0.90770  Biso   1.000  H
  H318     1.0000 0.75660  0.44760  0.98460  Biso   1.000  H
  H319     1.0000 0.78360  0.37740  0.87220  Biso   1.000  H
  H320     1.0000 0.73940  0.40720  0.85520  Biso   1.000  H
  H321     1.0000 0.79060  0.40360  0.81780  Biso   1.000  H
  H322     1.0000 0.74340  0.51820  0.82180  Biso   1.000  H
  H323     1.0000 0.76470  0.49070  0.78670  Biso   1.000  H
  H324     1.0000 0.71430  0.49250  0.82530  Biso   1.000  H
  H325     1.0000 0.64810  0.05390  0.47710  Biso   1.000  H
  H326     1.0000 0.53550  0.04890  0.59230  Biso   1.000  H
  H327     1.0000 0.68880  0.05240  0.51540  Biso   1.000  H
  H328     1.0000 0.53320  0.12260  0.62780  Biso   1.000  H
  H329     1.0000 0.50180  0.09280  0.64480  Biso   1.000  H
  H330     1.0000 0.51200  0.09640  0.68220  Biso   1.000  H
  H331     1.0000 0.58340  0.98180  0.67820  Biso   1.000  H
  H332     1.0000 0.54210  0.00930  0.71330  Biso   1.000  H
  H333     1.0000 0.53210  0.00750  0.67470  Biso   1.000  H
  H334     1.0000 0.05390  0.64810  0.82090  Biso   1.000  H
  H335     1.0000 0.04890  0.53550  0.82330  Biso   1.000  H
  H336     1.0000 0.05240  0.68880  0.74340  Biso   1.000  H
  H337     1.0000 0.12260  0.53320  0.71640  Biso   1.000  H
  H338     1.0000 0.09280  0.50180  0.76060  Biso   1.000  H
  H339     1.0000 0.09640  0.51200  0.70940  Biso   1.000  H
  H340     1.0000 0.98180  0.58340  0.75660  Biso   1.000  H
  H341     1.0000 0.00930  0.54210  0.73530  Biso   1.000  H
  H342     1.0000 0.00750  0.53210  0.78570  Biso   1.000  H
  H343     1.0000 0.82090  0.47710  0.05390  Biso   1.000  H
  H344     1.0000 0.82330  0.59230  0.04890  Biso   1.000  H
  H345     1.0000 0.74340  0.51540  0.05240  Biso   1.000  H
  H346     1.0000 0.71640  0.62780  0.12260  Biso   1.000  H
  H347     1.0000 0.76060  0.64480  0.09280  Biso   1.000  H
  H348     1.0000 0.70940  0.68220  0.09640  Biso   1.000  H
  H349     1.0000 0.75660  0.67820  0.98180  Biso   1.000  H
  H350     1.0000 0.73530  0.71330  0.00930  Biso   1.000  H
  H351     1.0000 0.78570  0.67470  0.00750  Biso   1.000  H
  H352     1.0000 0.47710  0.82090  0.64810  Biso   1.000  H
  H353     1.0000 0.59230  0.82330  0.53550  Biso   1.000  H
  H354     1.0000 0.51540  0.74340  0.68880  Biso   1.000  H
  H355     1.0000 0.62780  0.71640  0.53320  Biso   1.000  H
  H356     1.0000 0.64480  0.76060  0.50180  Biso   1.000  H
  H357     1.0000 0.68220  0.70940  0.51200  Biso   1.000  H
  H358     1.0000 0.67820  0.75660  0.58340  Biso   1.000  H
  H359     1.0000 0.71330  0.73530  0.54210  Biso   1.000  H
  H360     1.0000 0.67470  0.78570  0.53210  Biso   1.000  H
  H361     1.0000 0.47710  0.05390  0.82090  Biso   1.000  H
  H362     1.0000 0.59230  0.04890  0.82330  Biso   1.000  H
  H363     1.0000 0.51540  0.05240  0.74340  Biso   1.000  H
  H364     1.0000 0.62780  0.12260  0.71640  Biso   1.000  H
  H365     1.0000 0.64480  0.09280  0.76060  Biso   1.000  H
  H366     1.0000 0.68220  0.09640  0.70940  Biso   1.000  H
  H367     1.0000 0.67820  0.98180  0.75660  Biso   1.000  H
  H368     1.0000 0.71330  0.00930  0.73530  Biso   1.000  H
  H369     1.0000 0.67470  0.00750  0.78570  Biso   1.000  H
  H370     1.0000 0.82090  0.64810  0.47710  Biso   1.000  H
  H371     1.0000 0.82330  0.53550  0.59230  Biso   1.000  H
  H372     1.0000 0.74340  0.68880  0.51540  Biso   1.000  H
  H373     1.0000 0.71640  0.53320  0.62780  Biso   1.000  H
  H374     1.0000 0.76060  0.50180  0.64480  Biso   1.000  H
  H375     1.0000 0.70940  0.51200  0.68220  Biso   1.000  H
  H376     1.0000 0.75660  0.58340  0.67820  Biso   1.000  H
  H377     1.0000 0.73530  0.54210  0.71330  Biso   1.000  H
  H378     1.0000 0.78570  0.53210  0.67470  Biso   1.000  H
  H379     1.0000 0.05390  0.47710  0.64810  Biso   1.000  H
  H380     1.0000 0.04890  0.59230  0.53550  Biso   1.000  H
  H381     1.0000 0.05240  0.51540  0.68880  Biso   1.000  H
  H382     1.0000 0.12260  0.62780  0.53320  Biso   1.000  H
  H383     1.0000 0.09280  0.64480  0.50180  Biso   1.000  H
  H384     1.0000 0.09640  0.68220  0.51200  Biso   1.000  H
  H385     1.0000 0.98180  0.67820  0.58340  Biso   1.000  H
  H386     1.0000 0.00930  0.71330  0.54210  Biso   1.000  H
  H387     1.0000 0.00750  0.67470  0.53210  Biso   1.000  H
  H388     1.0000 0.64810  0.82090  0.05390  Biso   1.000  H
  H389     1.0000 0.53550  0.82330  0.04890  Biso   1.000  H
  H390     1.0000 0.68880  0.74340  0.05240  Biso   1.000  H
  H391     1.0000 0.53320  0.71640  0.12260  Biso   1.000  H
  H392     1.0000 0.50180  0.76060  0.09280  Biso   1.000  H
  H393     1.0000 0.51200  0.70940  0.09640  Biso   1.000  H
  H394     1.0000 0.58340  0.75660  0.98180  Biso   1.000  H
  H395     1.0000 0.54210  0.73530  0.00930  Biso   1.000  H
  H396     1.0000 0.53210  0.78570  0.00750  Biso   1.000  H
  H397     1.0000 0.82090  0.05390  0.64810  Biso   1.000  H
  H398     1.0000 0.82330  0.04890  0.53550  Biso   1.000  H
  H399     1.0000 0.74340  0.05240  0.68880  Biso   1.000  H
  H400     1.0000 0.71640  0.12260  0.53320  Biso   1.000  H
  H401     1.0000 0.76060  0.09280  0.50180  Biso   1.000  H
  H402     1.0000 0.70940  0.09640  0.51200  Biso   1.000  H
  H403     1.0000 0.75660  0.98180  0.58340  Biso   1.000  H
  H404     1.0000 0.73530  0.00930  0.54210  Biso   1.000  H
  H405     1.0000 0.78570  0.00750  0.53210  Biso   1.000  H
  H406     1.0000 0.47710  0.64810  0.05390  Biso   1.000  H
  H407     1.0000 0.59230  0.53550  0.04890  Biso   1.000  H
  H408     1.0000 0.51540  0.68880  0.05240  Biso   1.000  H
  H409     1.0000 0.62780  0.53320  0.12260  Biso   1.000  H
  H410     1.0000 0.64480  0.50180  0.09280  Biso   1.000  H
  H411     1.0000 0.68220  0.51200  0.09640  Biso   1.000  H
  H412     1.0000 0.67820  0.58340  0.98180  Biso   1.000  H
  H413     1.0000 0.71330  0.54210  0.00930  Biso   1.000  H
  H414     1.0000 0.67470  0.53210  0.00750  Biso   1.000  H
  H415     1.0000 0.64810  0.47710  0.82090  Biso   1.000  H
  H416     1.0000 0.53550  0.59230  0.82330  Biso   1.000  H
  H417     1.0000 0.68880  0.51540  0.74340  Biso   1.000  H
  H418     1.0000 0.53320  0.62780  0.71640  Biso   1.000  H
  H419     1.0000 0.50180  0.64480  0.76060  Biso   1.000  H
  H420     1.0000 0.51200  0.68220  0.70940  Biso   1.000  H
  H421     1.0000 0.58340  0.67820  0.75660  Biso   1.000  H
  H422     1.0000 0.54210  0.71330  0.73530  Biso   1.000  H
  H423     1.0000 0.53210  0.67470  0.78570  Biso   1.000  H
  H424     1.0000 0.05390  0.82090  0.47710  Biso   1.000  H
  H425     1.0000 0.04890  0.82330  0.59230  Biso   1.000  H
  H426     1.0000 0.05240  0.74340  0.51540  Biso   1.000  H
  H427     1.0000 0.12260  0.71640  0.62780  Biso   1.000  H
  H428     1.0000 0.09280  0.76060  0.64480  Biso   1.000  H
  H429     1.0000 0.09640  0.70940  0.68220  Biso   1.000  H
  H430     1.0000 0.98180  0.75660  0.67820  Biso   1.000  H
  H431     1.0000 0.00930  0.73530  0.71330  Biso   1.000  H
  H432     1.0000 0.00750  0.78570  0.67470  Biso   1.000  H
  C1       1.0000 0.54890  0.06670  0.00490  Biso   1.000  C
  C2       1.0000 0.55050  0.08810  0.03210  Biso   1.000  C
  C3       1.0000 0.55260  0.13320  0.00880  Biso   1.000  C
  C4       1.0000 0.55050  0.06610  0.07610  Biso   1.000  C
  C5       1.0000 0.55280  0.15740  0.03080  Biso   1.000  C
  C6       1.0000 0.55374  0.13286  0.07618  Biso   1.000  C
  C7       1.0000 0.55265  0.08747  0.09745  Biso   1.000  C
  C8       1.0000 0.55314  0.06684  0.14758  Biso   1.000  C
  C9       1.0000 0.59465  0.02495  0.15095  Biso   1.000  C
  C10      1.0000 0.50903  0.05503  0.18137  Biso   1.000  C
  C11      1.0000 0.55484  0.10728  0.15160  Biso   1.000  C
  C12      1.0000 0.55359  0.14583  0.11085  Biso   1.000  C
  C13      1.0000 0.06670  0.54890  0.37950  Biso   1.000  C
  C14      1.0000 0.08810  0.55050  0.32930  Biso   1.000  C
  C15      1.0000 0.13320  0.55260  0.30540  Biso   1.000  C
  C16      1.0000 0.06610  0.55050  0.30730  Biso   1.000  C
  C17      1.0000 0.15740  0.55280  0.25900  Biso   1.000  C
  C18      1.0000 0.13286  0.55374  0.23722  Biso   1.000  C
  C19      1.0000 0.08747  0.55265  0.26243  Biso   1.000  C
  C20      1.0000 0.06684  0.55314  0.23244  Biso   1.000  C
  C21      1.0000 0.02495  0.59465  0.22945  Biso   1.000  C
  C22      1.0000 0.05503  0.50903  0.25457  Biso   1.000  C
  C23      1.0000 0.10728  0.55484  0.18628  Biso   1.000  C
  C24      1.0000 0.14583  0.55359  0.18973  Biso   1.000  C
  C25      1.0000 0.00490  0.37950  0.54890  Biso   1.000  C
  C26      1.0000 0.03210  0.32930  0.55050  Biso   1.000  C
  C27      1.0000 0.00880  0.30540  0.55260  Biso   1.000  C
  C28      1.0000 0.07610  0.30730  0.55050  Biso   1.000  C
  C29      1.0000 0.03080  0.25900  0.55280  Biso   1.000  C
  C30      1.0000 0.07618  0.23722  0.55374  Biso   1.000  C
  C31      1.0000 0.09745  0.26243  0.55265  Biso   1.000  C
  C32      1.0000 0.14758  0.23244  0.55314  Biso   1.000  C
  C33      1.0000 0.15095  0.22945  0.59465  Biso   1.000  C
  C34      1.0000 0.18137  0.25457  0.50903  Biso   1.000  C
  C35      1.0000 0.15160  0.18628  0.55484  Biso   1.000  C
  C36      1.0000 0.11085  0.18973  0.55359  Biso   1.000  C
  C37      1.0000 0.37950  0.00490  0.06670  Biso   1.000  C
  C38      1.0000 0.32930  0.03210  0.08810  Biso   1.000  C
  C39      1.0000 0.30540  0.00880  0.13320  Biso   1.000  C
  C40      1.0000 0.30730  0.07610  0.06610  Biso   1.000  C
  C41      1.0000 0.25900  0.03080  0.15740  Biso   1.000  C
  C42      1.0000 0.23722  0.07618  0.13286  Biso   1.000  C
  C43      1.0000 0.26243  0.09745  0.08747  Biso   1.000  C
  C44      1.0000 0.23244  0.14758  0.06684  Biso   1.000  C
  C45      1.0000 0.22945  0.15095  0.02495  Biso   1.000  C
  C46      1.0000 0.25457  0.18137  0.05503  Biso   1.000  C
  C47      1.0000 0.18628  0.15160  0.10728  Biso   1.000  C
  C48      1.0000 0.18973  0.11085  0.14583  Biso   1.000  C
  C49      1.0000 0.54890  0.00490  0.37950  Biso   1.000  C
  C50      1.0000 0.55050  0.03210  0.32930  Biso   1.000  C
  C51      1.0000 0.55260  0.00880  0.30540  Biso   1.000  C
  C52      1.0000 0.55050  0.07610  0.30730  Biso   1.000  C
  C53      1.0000 0.55280  0.03080  0.25900  Biso   1.000  C
  C54      1.0000 0.55374  0.07618  0.23722  Biso   1.000  C
  C55      1.0000 0.55265  0.09745  0.26243  Biso   1.000  C
  C56      1.0000 0.55314  0.14758  0.23244  Biso   1.000  C
  C57      1.0000 0.59465  0.15095  0.22945  Biso   1.000  C
  C58      1.0000 0.50903  0.18137  0.25457  Biso   1.000  C
  C59      1.0000 0.55484  0.15160  0.18628  Biso   1.000  C
  C60      1.0000 0.55359  0.11085  0.18973  Biso   1.000  C
  C61      1.0000 0.06670  0.37950  0.00490  Biso   1.000  C
  C62      1.0000 0.08810  0.32930  0.03210  Biso   1.000  C
  C63      1.0000 0.13320  0.30540  0.00880  Biso   1.000  C
  C64      1.0000 0.06610  0.30730  0.07610  Biso   1.000  C
  C65      1.0000 0.15740  0.25900  0.03080  Biso   1.000  C
  C66      1.0000 0.13286  0.23722  0.07618  Biso   1.000  C
  C67      1.0000 0.08747  0.26243  0.09745  Biso   1.000  C
  C68      1.0000 0.06684  0.23244  0.14758  Biso   1.000  C
  C69      1.0000 0.02495  0.22945  0.15095  Biso   1.000  C
  C70      1.0000 0.05503  0.25457  0.18137  Biso   1.000  C
  C71      1.0000 0.10728  0.18628  0.15160  Biso   1.000  C
  C72      1.0000 0.14583  0.18973  0.11085  Biso   1.000  C
  C73      1.0000 0.00490  0.54890  0.06670  Biso   1.000  C
  C74      1.0000 0.03210  0.55050  0.08810  Biso   1.000  C
  C75      1.0000 0.00880  0.55260  0.13320  Biso   1.000  C
  C76      1.0000 0.07610  0.55050  0.06610  Biso   1.000  C
  C77      1.0000 0.03080  0.55280  0.15740  Biso   1.000  C
  C78      1.0000 0.07618  0.55374  0.13286  Biso   1.000  C
  C79      1.0000 0.09745  0.55265  0.08747  Biso   1.000  C
  C80      1.0000 0.14758  0.55314  0.06684  Biso   1.000  C
  C81      1.0000 0.15095  0.59465  0.02495  Biso   1.000  C
  C82      1.0000 0.18137  0.50903  0.05503  Biso   1.000  C
  C83      1.0000 0.15160  0.55484  0.10728  Biso   1.000  C
  C84      1.0000 0.11085  0.55359  0.14583  Biso   1.000  C
  C85      1.0000 0.37950  0.06670  0.54890  Biso   1.000  C
  C86      1.0000 0.32930  0.08810  0.55050  Biso   1.000  C
  C87      1.0000 0.30540  0.13320  0.55260  Biso   1.000  C
  C88      1.0000 0.30730  0.06610  0.55050  Biso   1.000  C
  C89      1.0000 0.25900  0.15740  0.55280  Biso   1.000  C
  C90      1.0000 0.23722  0.13286  0.55374  Biso   1.000  C
  C91      1.0000 0.26243  0.08747  0.55265  Biso   1.000  C
  C92      1.0000 0.23244  0.06684  0.55314  Biso   1.000  C
  C93      1.0000 0.22945  0.02495  0.59465  Biso   1.000  C
  C94      1.0000 0.25457  0.05503  0.50903  Biso   1.000  C
  C95      1.0000 0.18628  0.10728  0.55484  Biso   1.000  C
  C96      1.0000 0.18973  0.14583  0.55359  Biso   1.000  C
  C97      1.0000 0.54890  0.37950  0.06670  Biso   1.000  C
  C98      1.0000 0.55050  0.32930  0.08810  Biso   1.000  C
  C99      1.0000 0.55260  0.30540  0.13320  Biso   1.000  C
  C100     1.0000 0.55050  0.30730  0.06610  Biso   1.000  C
  C101     1.0000 0.55280  0.25900  0.15740  Biso   1.000  C
  C102     1.0000 0.55374  0.23722  0.13286  Biso   1.000  C
  C103     1.0000 0.55265  0.26243  0.08747  Biso   1.000  C
  C104     1.0000 0.55314  0.23244  0.06684  Biso   1.000  C
  C105     1.0000 0.59465  0.22945  0.02495  Biso   1.000  C
  C106     1.0000 0.50903  0.25457  0.05503  Biso   1.000  C
  C107     1.0000 0.55484  0.18628  0.10728  Biso   1.000  C
  C108     1.0000 0.55359  0.18973  0.14583  Biso   1.000  C
  C109     1.0000 0.06670  0.00490  0.54890  Biso   1.000  C
  C110     1.0000 0.08810  0.03210  0.55050  Biso   1.000  C
  C111     1.0000 0.13320  0.00880  0.55260  Biso   1.000  C
  C112     1.0000 0.06610  0.07610  0.55050  Biso   1.000  C
  C113     1.0000 0.15740  0.03080  0.55280  Biso   1.000  C
  C114     1.0000 0.13286  0.07618  0.55374  Biso   1.000  C
  C115     1.0000 0.08747  0.09745  0.55265  Biso   1.000  C
  C116     1.0000 0.06684  0.14758  0.55314  Biso   1.000  C
  C117     1.0000 0.02495  0.15095  0.59465  Biso   1.000  C
  C118     1.0000 0.05503  0.18137  0.50903  Biso   1.000  C
  C119     1.0000 0.10728  0.15160  0.55484  Biso   1.000  C
  C120     1.0000 0.14583  0.11085  0.55359  Biso   1.000  C
  C121     1.0000 0.00490  0.06670  0.37950  Biso   1.000  C
  C122     1.0000 0.03210  0.08810  0.32930  Biso   1.000  C
  C123     1.0000 0.00880  0.13320  0.30540  Biso   1.000  C
  C124     1.0000 0.07610  0.06610  0.30730  Biso   1.000  C
  C125     1.0000 0.03080  0.15740  0.25900  Biso   1.000  C
  C126     1.0000 0.07618  0.13286  0.23722  Biso   1.000  C
  C127     1.0000 0.09745  0.08747  0.26243  Biso   1.000  C
  C128     1.0000 0.14758  0.06684  0.23244  Biso   1.000  C
  C129     1.0000 0.15095  0.02495  0.22945  Biso   1.000  C
  C130     1.0000 0.18137  0.05503  0.25457  Biso   1.000  C
  C131     1.0000 0.15160  0.10728  0.18628  Biso   1.000  C
  C132     1.0000 0.11085  0.14583  0.18973  Biso   1.000  C
  C133     1.0000 0.37950  0.54890  0.00490  Biso   1.000  C
  C134     1.0000 0.32930  0.55050  0.03210  Biso   1.000  C
  C135     1.0000 0.30540  0.55260  0.00880  Biso   1.000  C
  C136     1.0000 0.30730  0.55050  0.07610  Biso   1.000  C
  C137     1.0000 0.25900  0.55280  0.03080  Biso   1.000  C
  C138     1.0000 0.23722  0.55374  0.07618  Biso   1.000  C
  C139     1.0000 0.26243  0.55265  0.09745  Biso   1.000  C
  C140     1.0000 0.23244  0.55314  0.14758  Biso   1.000  C
  C141     1.0000 0.22945  0.59465  0.15095  Biso   1.000  C
  C142     1.0000 0.25457  0.50903  0.18137  Biso   1.000  C
  C143     1.0000 0.18628  0.55484  0.15160  Biso   1.000  C
  C144     1.0000 0.18973  0.55359  0.11085  Biso   1.000  C
  C145     1.0000 0.43330  0.95110  0.49510  Biso   1.000  C
  C146     1.0000 0.41190  0.94950  0.46790  Biso   1.000  C
  C147     1.0000 0.36680  0.94740  0.49120  Biso   1.000  C
  C148     1.0000 0.43390  0.94950  0.42390  Biso   1.000  C
  C149     1.0000 0.34260  0.94720  0.46920  Biso   1.000  C
  C150     1.0000 0.36714  0.94626  0.42382  Biso   1.000  C
  C151     1.0000 0.41253  0.94735  0.40255  Biso   1.000  C
  C152     1.0000 0.43316  0.94686  0.35242  Biso   1.000  C
  C153     1.0000 0.47505  0.90535  0.34905  Biso   1.000  C
  C154     1.0000 0.44497  0.99097  0.31863  Biso   1.000  C
  C155     1.0000 0.39272  0.94516  0.34840  Biso   1.000  C
  C156     1.0000 0.35417  0.94641  0.38915  Biso   1.000  C
  C157     1.0000 0.95110  0.43330  0.12050  Biso   1.000  C
  C158     1.0000 0.94950  0.41190  0.17070  Biso   1.000  C
  C159     1.0000 0.94740  0.36680  0.19460  Biso   1.000  C
  C160     1.0000 0.94950  0.43390  0.19270  Biso   1.000  C
  C161     1.0000 0.94720  0.34260  0.24100  Biso   1.000  C
  C162     1.0000 0.94626  0.36714  0.26278  Biso   1.000  C
  C163     1.0000 0.94735  0.41253  0.23757  Biso   1.000  C
  C164     1.0000 0.94686  0.43316  0.26756  Biso   1.000  C
  C165     1.0000 0.90535  0.47505  0.27055  Biso   1.000  C
  C166     1.0000 0.99097  0.44497  0.24543  Biso   1.000  C
  C167     1.0000 0.94516  0.39272  0.31372  Biso   1.000  C
  C168     1.0000 0.94641  0.35417  0.31027  Biso   1.000  C
  C169     1.0000 0.12050  0.49510  0.95110  Biso   1.000  C
  C170     1.0000 0.17070  0.46790  0.94950  Biso   1.000  C
  C171     1.0000 0.19460  0.49120  0.94740  Biso   1.000  C
  C172     1.0000 0.19270  0.42390  0.94950  Biso   1.000  C
  C173     1.0000 0.24100  0.46920  0.94720  Biso   1.000  C
  C174     1.0000 0.26278  0.42382  0.94626  Biso   1.000  C
  C175     1.0000 0.23757  0.40255  0.94735  Biso   1.000  C
  C176     1.0000 0.26756  0.35242  0.94686  Biso   1.000  C
  C177     1.0000 0.27055  0.34905  0.90535  Biso   1.000  C
  C178     1.0000 0.24543  0.31863  0.99097  Biso   1.000  C
  C179     1.0000 0.31372  0.34840  0.94516  Biso   1.000  C
  C180     1.0000 0.31027  0.38915  0.94641  Biso   1.000  C
  C181     1.0000 0.49510  0.12050  0.43330  Biso   1.000  C
  C182     1.0000 0.46790  0.17070  0.41190  Biso   1.000  C
  C183     1.0000 0.49120  0.19460  0.36680  Biso   1.000  C
  C184     1.0000 0.42390  0.19270  0.43390  Biso   1.000  C
  C185     1.0000 0.46920  0.24100  0.34260  Biso   1.000  C
  C186     1.0000 0.42382  0.26278  0.36714  Biso   1.000  C
  C187     1.0000 0.40255  0.23757  0.41253  Biso   1.000  C
  C188     1.0000 0.35242  0.26756  0.43316  Biso   1.000  C
  C189     1.0000 0.34905  0.27055  0.47505  Biso   1.000  C
  C190     1.0000 0.31863  0.24543  0.44497  Biso   1.000  C
  C191     1.0000 0.34840  0.31372  0.39272  Biso   1.000  C
  C192     1.0000 0.38915  0.31027  0.35417  Biso   1.000  C
  C193     1.0000 0.49510  0.95110  0.12050  Biso   1.000  C
  C194     1.0000 0.46790  0.94950  0.17070  Biso   1.000  C
  C195     1.0000 0.49120  0.94740  0.19460  Biso   1.000  C
  C196     1.0000 0.42390  0.94950  0.19270  Biso   1.000  C
  C197     1.0000 0.46920  0.94720  0.24100  Biso   1.000  C
  C198     1.0000 0.42382  0.94626  0.26278  Biso   1.000  C
  C199     1.0000 0.40255  0.94735  0.23757  Biso   1.000  C
  C200     1.0000 0.35242  0.94686  0.26756  Biso   1.000  C
  C201     1.0000 0.34905  0.90535  0.27055  Biso   1.000  C
  C202     1.0000 0.31863  0.99097  0.24543  Biso   1.000  C
  C203     1.0000 0.34840  0.94516  0.31372  Biso   1.000  C
  C204     1.0000 0.38915  0.94641  0.31027  Biso   1.000  C
  C205     1.0000 0.12050  0.43330  0.49510  Biso   1.000  C
  C206     1.0000 0.17070  0.41190  0.46790  Biso   1.000  C
  C207     1.0000 0.19460  0.36680  0.49120  Biso   1.000  C
  C208     1.0000 0.19270  0.43390  0.42390  Biso   1.000  C
  C209     1.0000 0.24100  0.34260  0.46920  Biso   1.000  C
  C210     1.0000 0.26278  0.36714  0.42382  Biso   1.000  C
  C211     1.0000 0.23757  0.41253  0.40255  Biso   1.000  C
  C212     1.0000 0.26756  0.43316  0.35242  Biso   1.000  C
  C213     1.0000 0.27055  0.47505  0.34905  Biso   1.000  C
  C214     1.0000 0.24543  0.44497  0.31863  Biso   1.000  C
  C215     1.0000 0.31372  0.39272  0.34840  Biso   1.000  C
  C216     1.0000 0.31027  0.35417  0.38915  Biso   1.000  C
  C217     1.0000 0.95110  0.49510  0.43330  Biso   1.000  C
  C218     1.0000 0.94950  0.46790  0.41190  Biso   1.000  C
  C219     1.0000 0.94740  0.49120  0.36680  Biso   1.000  C
  C220     1.0000 0.94950  0.42390  0.43390  Biso   1.000  C
  C221     1.0000 0.94720  0.46920  0.34260  Biso   1.000  C
  C222     1.0000 0.94626  0.42382  0.36714  Biso   1.000  C
  C223     1.0000 0.94735  0.40255  0.41253  Biso   1.000  C
  C224     1.0000 0.94686  0.35242  0.43316  Biso   1.000  C
  C225     1.0000 0.90535  0.34905  0.47505  Biso   1.000  C
  C226     1.0000 0.99097  0.31863  0.44497  Biso   1.000  C
  C227     1.0000 0.94516  0.34840  0.39272  Biso   1.000  C
  C228     1.0000 0.94641  0.38915  0.35417  Biso   1.000  C
  C229     1.0000 0.43330  0.12050  0.95110  Biso   1.000  C
  C230     1.0000 0.41190  0.17070  0.94950  Biso   1.000  C
  C231     1.0000 0.36680  0.19460  0.94740  Biso   1.000  C
  C232     1.0000 0.43390  0.19270  0.94950  Biso   1.000  C
  C233     1.0000 0.34260  0.24100  0.94720  Biso   1.000  C
  C234     1.0000 0.36714  0.26278  0.94626  Biso   1.000  C
  C235     1.0000 0.41253  0.23757  0.94735  Biso   1.000  C
  C236     1.0000 0.43316  0.26756  0.94686  Biso   1.000  C
  C237     1.0000 0.47505  0.27055  0.90535  Biso   1.000  C
  C238     1.0000 0.44497  0.24543  0.99097  Biso   1.000  C
  C239     1.0000 0.39272  0.31372  0.94516  Biso   1.000  C
  C240     1.0000 0.35417  0.31027  0.94641  Biso   1.000  C
  C241     1.0000 0.12050  0.95110  0.43330  Biso   1.000  C
  C242     1.0000 0.17070  0.94950  0.41190  Biso   1.000  C
  C243     1.0000 0.19460  0.94740  0.36680  Biso   1.000  C
  C244     1.0000 0.19270  0.94950  0.43390  Biso   1.000  C
  C245     1.0000 0.24100  0.94720  0.34260  Biso   1.000  C
  C246     1.0000 0.26278  0.94626  0.36714  Biso   1.000  C
  C247     1.0000 0.23757  0.94735  0.41253  Biso   1.000  C
  C248     1.0000 0.26756  0.94686  0.43316  Biso   1.000  C
  C249     1.0000 0.27055  0.90535  0.47505  Biso   1.000  C
  C250     1.0000 0.24543  0.99097  0.44497  Biso   1.000  C
  C251     1.0000 0.31372  0.94516  0.39272  Biso   1.000  C
  C252     1.0000 0.31027  0.94641  0.35417  Biso   1.000  C
  C253     1.0000 0.49510  0.43330  0.95110  Biso   1.000  C
  C254     1.0000 0.46790  0.41190  0.94950  Biso   1.000  C
  C255     1.0000 0.49120  0.36680  0.94740  Biso   1.000  C
  C256     1.0000 0.42390  0.43390  0.94950  Biso   1.000  C
  C257     1.0000 0.46920  0.34260  0.94720  Biso   1.000  C
  C258     1.0000 0.42382  0.36714  0.94626  Biso   1.000  C
  C259     1.0000 0.40255  0.41253  0.94735  Biso   1.000  C
  C260     1.0000 0.35242  0.43316  0.94686  Biso   1.000  C
  C261     1.0000 0.34905  0.47505  0.90535  Biso   1.000  C
  C262     1.0000 0.31863  0.44497  0.99097  Biso   1.000  C
  C263     1.0000 0.34840  0.39272  0.94516  Biso   1.000  C
  C264     1.0000 0.38915  0.35417  0.94641  Biso   1.000  C
  C265     1.0000 0.43330  0.49510  0.12050  Biso   1.000  C
  C266     1.0000 0.41190  0.46790  0.17070  Biso   1.000  C
  C267     1.0000 0.36680  0.49120  0.19460  Biso   1.000  C
  C268     1.0000 0.43390  0.42390  0.19270  Biso   1.000  C
  C269     1.0000 0.34260  0.46920  0.24100  Biso   1.000  C
  C270     1.0000 0.36714  0.42382  0.26278  Biso   1.000  C
  C271     1.0000 0.41253  0.40255  0.23757  Biso   1.000  C
  C272     1.0000 0.43316  0.35242  0.26756  Biso   1.000  C
  C273     1.0000 0.47505  0.34905  0.27055  Biso   1.000  C
  C274     1.0000 0.44497  0.31863  0.24543  Biso   1.000  C
  C275     1.0000 0.39272  0.34840  0.31372  Biso   1.000  C
  C276     1.0000 0.35417  0.38915  0.31027  Biso   1.000  C
  C277     1.0000 0.95110  0.12050  0.49510  Biso   1.000  C
  C278     1.0000 0.94950  0.17070  0.46790  Biso   1.000  C
  C279     1.0000 0.94740  0.19460  0.49120  Biso   1.000  C
  C280     1.0000 0.94950  0.19270  0.42390  Biso   1.000  C
  C281     1.0000 0.94720  0.24100  0.46920  Biso   1.000  C
  C282     1.0000 0.94626  0.26278  0.42382  Biso   1.000  C
  C283     1.0000 0.94735  0.23757  0.40255  Biso   1.000  C
  C284     1.0000 0.94686  0.26756  0.35242  Biso   1.000  C
  C285     1.0000 0.90535  0.27055  0.34905  Biso   1.000  C
  C286     1.0000 0.99097  0.24543  0.31863  Biso   1.000  C
  C287     1.0000 0.94516  0.31372  0.34840  Biso   1.000  C
  C288     1.0000 0.94641  0.31027  0.38915  Biso   1.000  C
  C289     1.0000 0.45110  0.93330  0.99510  Biso   1.000  C
  C290     1.0000 0.44950  0.91190  0.96790  Biso   1.000  C
  C291     1.0000 0.44740  0.86680  0.99120  Biso   1.000  C
  C292     1.0000 0.44950  0.93390  0.92390  Biso   1.000  C
  C293     1.0000 0.44720  0.84260  0.96920  Biso   1.000  C
  C294     1.0000 0.44626  0.86714  0.92382  Biso   1.000  C
  C295     1.0000 0.44735  0.91253  0.90255  Biso   1.000  C
  C296     1.0000 0.44686  0.93316  0.85242  Biso   1.000  C
  C297     1.0000 0.40535  0.97505  0.84905  Biso   1.000  C
  C298     1.0000 0.49097  0.94497  0.81863  Biso   1.000  C
  C299     1.0000 0.44516  0.89272  0.84840  Biso   1.000  C
  C300     1.0000 0.44641  0.85417  0.88915  Biso   1.000  C
  C301     1.0000 0.93330  0.45110  0.62050  Biso   1.000  C
  C302     1.0000 0.91190  0.44950  0.67070  Biso   1.000  C
  C303     1.0000 0.86680  0.44740  0.69460  Biso   1.000  C
  C304     1.0000 0.93390  0.44950  0.69270  Biso   1.000  C
  C305     1.0000 0.84260  0.44720  0.74100  Biso   1.000  C
  C306     1.0000 0.86714  0.44626  0.76278  Biso   1.000  C
  C307     1.0000 0.91253  0.44735  0.73757  Biso   1.000  C
  C308     1.0000 0.93316  0.44686  0.76756  Biso   1.000  C
  C309     1.0000 0.97505  0.40535  0.77055  Biso   1.000  C
  C310     1.0000 0.94497  0.49097  0.74543  Biso   1.000  C
  C311     1.0000 0.89272  0.44516  0.81372  Biso   1.000  C
  C312     1.0000 0.85417  0.44641  0.81027  Biso   1.000  C
  C313     1.0000 0.99510  0.62050  0.45110  Biso   1.000  C
  C314     1.0000 0.96790  0.67070  0.44950  Biso   1.000  C
  C315     1.0000 0.99120  0.69460  0.44740  Biso   1.000  C
  C316     1.0000 0.92390  0.69270  0.44950  Biso   1.000  C
  C317     1.0000 0.96920  0.74100  0.44720  Biso   1.000  C
  C318     1.0000 0.92382  0.76278  0.44626  Biso   1.000  C
  C319     1.0000 0.90255  0.73757  0.44735  Biso   1.000  C
  C320     1.0000 0.85242  0.76756  0.44686  Biso   1.000  C
  C321     1.0000 0.84905  0.77055  0.40535  Biso   1.000  C
  C322     1.0000 0.81863  0.74543  0.49097  Biso   1.000  C
  C323     1.0000 0.84840  0.81372  0.44516  Biso   1.000  C
  C324     1.0000 0.88915  0.81027  0.44641  Biso   1.000  C
  C325     1.0000 0.62050  0.99510  0.93330  Biso   1.000  C
  C326     1.0000 0.67070  0.96790  0.91190  Biso   1.000  C
  C327     1.0000 0.69460  0.99120  0.86680  Biso   1.000  C
  C328     1.0000 0.69270  0.92390  0.93390  Biso   1.000  C
  C329     1.0000 0.74100  0.96920  0.84260  Biso   1.000  C
  C330     1.0000 0.76278  0.92382  0.86714  Biso   1.000  C
  C331     1.0000 0.73757  0.90255  0.91253  Biso   1.000  C
  C332     1.0000 0.76756  0.85242  0.93316  Biso   1.000  C
  C333     1.0000 0.77055  0.84905  0.97505  Biso   1.000  C
  C334     1.0000 0.74543  0.81863  0.94497  Biso   1.000  C
  C335     1.0000 0.81372  0.84840  0.89272  Biso   1.000  C
  C336     1.0000 0.81027  0.88915  0.85417  Biso   1.000  C
  C337     1.0000 0.45110  0.99510  0.62050  Biso   1.000  C
  C338     1.0000 0.44950  0.96790  0.67070  Biso   1.000  C
  C339     1.0000 0.44740  0.99120  0.69460  Biso   1.000  C
  C340     1.0000 0.44950  0.92390  0.69270  Biso   1.000  C
  C341     1.0000 0.44720  0.96920  0.74100  Biso   1.000  C
  C342     1.0000 0.44626  0.92382  0.76278  Biso   1.000  C
  C343     1.0000 0.44735  0.90255  0.73757  Biso   1.000  C
  C344     1.0000 0.44686  0.85242  0.76756  Biso   1.000  C
  C345     1.0000 0.40535  0.84905  0.77055  Biso   1.000  C
  C346     1.0000 0.49097  0.81863  0.74543  Biso   1.000  C
  C347     1.0000 0.44516  0.84840  0.81372  Biso   1.000  C
  C348     1.0000 0.44641  0.88915  0.81027  Biso   1.000  C
  C349     1.0000 0.93330  0.62050  0.99510  Biso   1.000  C
  C350     1.0000 0.91190  0.67070  0.96790  Biso   1.000  C
  C351     1.0000 0.86680  0.69460  0.99120  Biso   1.000  C
  C352     1.0000 0.93390  0.69270  0.92390  Biso   1.000  C
  C353     1.0000 0.84260  0.74100  0.96920  Biso   1.000  C
  C354     1.0000 0.86714  0.76278  0.92382  Biso   1.000  C
  C355     1.0000 0.91253  0.73757  0.90255  Biso   1.000  C
  C356     1.0000 0.93316  0.76756  0.85242  Biso   1.000  C
  C357     1.0000 0.97505  0.77055  0.84905  Biso   1.000  C
  C358     1.0000 0.94497  0.74543  0.81863  Biso   1.000  C
  C359     1.0000 0.89272  0.81372  0.84840  Biso   1.000  C
  C360     1.0000 0.85417  0.81027  0.88915  Biso   1.000  C
  C361     1.0000 0.99510  0.45110  0.93330  Biso   1.000  C
  C362     1.0000 0.96790  0.44950  0.91190  Biso   1.000  C
  C363     1.0000 0.99120  0.44740  0.86680  Biso   1.000  C
  C364     1.0000 0.92390  0.44950  0.93390  Biso   1.000  C
  C365     1.0000 0.96920  0.44720  0.84260  Biso   1.000  C
  C366     1.0000 0.92382  0.44626  0.86714  Biso   1.000  C
  C367     1.0000 0.90255  0.44735  0.91253  Biso   1.000  C
  C368     1.0000 0.85242  0.44686  0.93316  Biso   1.000  C
  C369     1.0000 0.84905  0.40535  0.97505  Biso   1.000  C
  C370     1.0000 0.81863  0.49097  0.94497  Biso   1.000  C
  C371     1.0000 0.84840  0.44516  0.89272  Biso   1.000  C
  C372     1.0000 0.88915  0.44641  0.85417  Biso   1.000  C
  C373     1.0000 0.62050  0.93330  0.45110  Biso   1.000  C
  C374     1.0000 0.67070  0.91190  0.44950  Biso   1.000  C
  C375     1.0000 0.69460  0.86680  0.44740  Biso   1.000  C
  C376     1.0000 0.69270  0.93390  0.44950  Biso   1.000  C
  C377     1.0000 0.74100  0.84260  0.44720  Biso   1.000  C
  C378     1.0000 0.76278  0.86714  0.44626  Biso   1.000  C
  C379     1.0000 0.73757  0.91253  0.44735  Biso   1.000  C
  C380     1.0000 0.76756  0.93316  0.44686  Biso   1.000  C
  C381     1.0000 0.77055  0.97505  0.40535  Biso   1.000  C
  C382     1.0000 0.74543  0.94497  0.49097  Biso   1.000  C
  C383     1.0000 0.81372  0.89272  0.44516  Biso   1.000  C
  C384     1.0000 0.81027  0.85417  0.44641  Biso   1.000  C
  C385     1.0000 0.45110  0.62050  0.93330  Biso   1.000  C
  C386     1.0000 0.44950  0.67070  0.91190  Biso   1.000  C
  C387     1.0000 0.44740  0.69460  0.86680  Biso   1.000  C
  C388     1.0000 0.44950  0.69270  0.93390  Biso   1.000  C
  C389     1.0000 0.44720  0.74100  0.84260  Biso   1.000  C
  C390     1.0000 0.44626  0.76278  0.86714  Biso   1.000  C
  C391     1.0000 0.44735  0.73757  0.91253  Biso   1.000  C
  C392     1.0000 0.44686  0.76756  0.93316  Biso   1.000  C
  C393     1.0000 0.40535  0.77055  0.97505  Biso   1.000  C
  C394     1.0000 0.49097  0.74543  0.94497  Biso   1.000  C
  C395     1.0000 0.44516  0.81372  0.89272  Biso   1.000  C
  C396     1.0000 0.44641  0.81027  0.85417  Biso   1.000  C
  C397     1.0000 0.93330  0.99510  0.45110  Biso   1.000  C
  C398     1.0000 0.91190  0.96790  0.44950  Biso   1.000  C
  C399     1.0000 0.86680  0.99120  0.44740  Biso   1.000  C
  C400     1.0000 0.93390  0.92390  0.44950  Biso   1.000  C
  C401     1.0000 0.84260  0.96920  0.44720  Biso   1.000  C
  C402     1.0000 0.86714  0.92382  0.44626  Biso   1.000  C
  C403     1.0000 0.91253  0.90255  0.44735  Biso   1.000  C
  C404     1.0000 0.93316  0.85242  0.44686  Biso   1.000  C
  C405     1.0000 0.97505  0.84905  0.40535  Biso   1.000  C
  C406     1.0000 0.94497  0.81863  0.49097  Biso   1.000  C
  C407     1.0000 0.89272  0.84840  0.44516  Biso   1.000  C
  C408     1.0000 0.85417  0.88915  0.44641  Biso   1.000  C
  C409     1.0000 0.99510  0.93330  0.62050  Biso   1.000  C
  C410     1.0000 0.96790  0.91190  0.67070  Biso   1.000  C
  C411     1.0000 0.99120  0.86680  0.69460  Biso   1.000  C
  C412     1.0000 0.92390  0.93390  0.69270  Biso   1.000  C
  C413     1.0000 0.96920  0.84260  0.74100  Biso   1.000  C
  C414     1.0000 0.92382  0.86714  0.76278  Biso   1.000  C
  C415     1.0000 0.90255  0.91253  0.73757  Biso   1.000  C
  C416     1.0000 0.85242  0.93316  0.76756  Biso   1.000  C
  C417     1.0000 0.84905  0.97505  0.77055  Biso   1.000  C
  C418     1.0000 0.81863  0.94497  0.74543  Biso   1.000  C
  C419     1.0000 0.84840  0.89272  0.81372  Biso   1.000  C
  C420     1.0000 0.88915  0.85417  0.81027  Biso   1.000  C
  C421     1.0000 0.62050  0.45110  0.99510  Biso   1.000  C
  C422     1.0000 0.67070  0.44950  0.96790  Biso   1.000  C
  C423     1.0000 0.69460  0.44740  0.99120  Biso   1.000  C
  C424     1.0000 0.69270  0.44950  0.92390  Biso   1.000  C
  C425     1.0000 0.74100  0.44720  0.96920  Biso   1.000  C
  C426     1.0000 0.76278  0.44626  0.92382  Biso   1.000  C
  C427     1.0000 0.73757  0.44735  0.90255  Biso   1.000  C
  C428     1.0000 0.76756  0.44686  0.85242  Biso   1.000  C
  C429     1.0000 0.77055  0.40535  0.84905  Biso   1.000  C
  C430     1.0000 0.74543  0.49097  0.81863  Biso   1.000  C
  C431     1.0000 0.81372  0.44516  0.84840  Biso   1.000  C
  C432     1.0000 0.81027  0.44641  0.88915  Biso   1.000  C
  C433     1.0000 0.56670  0.04890  0.50490  Biso   1.000  C
  C434     1.0000 0.58810  0.05050  0.53210  Biso   1.000  C
  C435     1.0000 0.63320  0.05260  0.50880  Biso   1.000  C
  C436     1.0000 0.56610  0.05050  0.57610  Biso   1.000  C
  C437     1.0000 0.65740  0.05280  0.53080  Biso   1.000  C
  C438     1.0000 0.63286  0.05374  0.57618  Biso   1.000  C
  C439     1.0000 0.58747  0.05265  0.59745  Biso   1.000  C
  C440     1.0000 0.56684  0.05314  0.64758  Biso   1.000  C
  C441     1.0000 0.52495  0.09465  0.65095  Biso   1.000  C
  C442     1.0000 0.55503  0.00903  0.68137  Biso   1.000  C
  C443     1.0000 0.60728  0.05484  0.65160  Biso   1.000  C
  C444     1.0000 0.64583  0.05359  0.61085  Biso   1.000  C
  C445     1.0000 0.04890  0.56670  0.87950  Biso   1.000  C
  C446     1.0000 0.05050  0.58810  0.82930  Biso   1.000  C
  C447     1.0000 0.05260  0.63320  0.80540  Biso   1.000  C
  C448     1.0000 0.05050  0.56610  0.80730  Biso   1.000  C
  C449     1.0000 0.05280  0.65740  0.75900  Biso   1.000  C
  C450     1.0000 0.05374  0.63286  0.73722  Biso   1.000  C
  C451     1.0000 0.05265  0.58747  0.76243  Biso   1.000  C
  C452     1.0000 0.05314  0.56684  0.73244  Biso   1.000  C
  C453     1.0000 0.09465  0.52495  0.72945  Biso   1.000  C
  C454     1.0000 0.00903  0.55503  0.75457  Biso   1.000  C
  C455     1.0000 0.05484  0.60728  0.68628  Biso   1.000  C
  C456     1.0000 0.05359  0.64583  0.68973  Biso   1.000  C
  C457     1.0000 0.87950  0.50490  0.04890  Biso   1.000  C
  C458     1.0000 0.82930  0.53210  0.05050  Biso   1.000  C
  C459     1.0000 0.80540  0.50880  0.05260  Biso   1.000  C
  C460     1.0000 0.80730  0.57610  0.05050  Biso   1.000  C
  C461     1.0000 0.75900  0.53080  0.05280  Biso   1.000  C
  C462     1.0000 0.73722  0.57618  0.05374  Biso   1.000  C
  C463     1.0000 0.76243  0.59745  0.05265  Biso   1.000  C
  C464     1.0000 0.73244  0.64758  0.05314  Biso   1.000  C
  C465     1.0000 0.72945  0.65095  0.09465  Biso   1.000  C
  C466     1.0000 0.75457  0.68137  0.00903  Biso   1.000  C
  C467     1.0000 0.68628  0.65160  0.05484  Biso   1.000  C
  C468     1.0000 0.68973  0.61085  0.05359  Biso   1.000  C
  C469     1.0000 0.50490  0.87950  0.56670  Biso   1.000  C
  C470     1.0000 0.53210  0.82930  0.58810  Biso   1.000  C
  C471     1.0000 0.50880  0.80540  0.63320  Biso   1.000  C
  C472     1.0000 0.57610  0.80730  0.56610  Biso   1.000  C
  C473     1.0000 0.53080  0.75900  0.65740  Biso   1.000  C
  C474     1.0000 0.57618  0.73722  0.63286  Biso   1.000  C
  C475     1.0000 0.59745  0.76243  0.58747  Biso   1.000  C
  C476     1.0000 0.64758  0.73244  0.56684  Biso   1.000  C
  C477     1.0000 0.65095  0.72945  0.52495  Biso   1.000  C
  C478     1.0000 0.68137  0.75457  0.55503  Biso   1.000  C
  C479     1.0000 0.65160  0.68628  0.60728  Biso   1.000  C
  C480     1.0000 0.61085  0.68973  0.64583  Biso   1.000  C
  C481     1.0000 0.50490  0.04890  0.87950  Biso   1.000  C
  C482     1.0000 0.53210  0.05050  0.82930  Biso   1.000  C
  C483     1.0000 0.50880  0.05260  0.80540  Biso   1.000  C
  C484     1.0000 0.57610  0.05050  0.80730  Biso   1.000  C
  C485     1.0000 0.53080  0.05280  0.75900  Biso   1.000  C
  C486     1.0000 0.57618  0.05374  0.73722  Biso   1.000  C
  C487     1.0000 0.59745  0.05265  0.76243  Biso   1.000  C
  C488     1.0000 0.64758  0.05314  0.73244  Biso   1.000  C
  C489     1.0000 0.65095  0.09465  0.72945  Biso   1.000  C
  C490     1.0000 0.68137  0.00903  0.75457  Biso   1.000  C
  C491     1.0000 0.65160  0.05484  0.68628  Biso   1.000  C
  C492     1.0000 0.61085  0.05359  0.68973  Biso   1.000  C
  C493     1.0000 0.87950  0.56670  0.50490  Biso   1.000  C
  C494     1.0000 0.82930  0.58810  0.53210  Biso   1.000  C
  C495     1.0000 0.80540  0.63320  0.50880  Biso   1.000  C
  C496     1.0000 0.80730  0.56610  0.57610  Biso   1.000  C
  C497     1.0000 0.75900  0.65740  0.53080  Biso   1.000  C
  C498     1.0000 0.73722  0.63286  0.57618  Biso   1.000  C
  C499     1.0000 0.76243  0.58747  0.59745  Biso   1.000  C
  C500     1.0000 0.73244  0.56684  0.64758  Biso   1.000  C
  C501     1.0000 0.72945  0.52495  0.65095  Biso   1.000  C
  C502     1.0000 0.75457  0.55503  0.68137  Biso   1.000  C
  C503     1.0000 0.68628  0.60728  0.65160  Biso   1.000  C
  C504     1.0000 0.68973  0.64583  0.61085  Biso   1.000  C
  C505     1.0000 0.04890  0.50490  0.56670  Biso   1.000  C
  C506     1.0000 0.05050  0.53210  0.58810  Biso   1.000  C
  C507     1.0000 0.05260  0.50880  0.63320  Biso   1.000  C
  C508     1.0000 0.05050  0.57610  0.56610  Biso   1.000  C
  C509     1.0000 0.05280  0.53080  0.65740  Biso   1.000  C
  C510     1.0000 0.05374  0.57618  0.63286  Biso   1.000  C
  C511     1.0000 0.05265  0.59745  0.58747  Biso   1.000  C
  C512     1.0000 0.05314  0.64758  0.56684  Biso   1.000  C
  C513     1.0000 0.09465  0.65095  0.52495  Biso   1.000  C
  C514     1.0000 0.00903  0.68137  0.55503  Biso   1.000  C
  C515     1.0000 0.05484  0.65160  0.60728  Biso   1.000  C
  C516     1.0000 0.05359  0.61085  0.64583  Biso   1.000  C
  C517     1.0000 0.56670  0.87950  0.04890  Biso   1.000  C
  C518     1.0000 0.58810  0.82930  0.05050  Biso   1.000  C
  C519     1.0000 0.63320  0.80540  0.05260  Biso   1.000  C
  C520     1.0000 0.56610  0.80730  0.05050  Biso   1.000  C
  C521     1.0000 0.65740  0.75900  0.05280  Biso   1.000  C
  C522     1.0000 0.63286  0.73722  0.05374  Biso   1.000  C
  C523     1.0000 0.58747  0.76243  0.05265  Biso   1.000  C
  C524     1.0000 0.56684  0.73244  0.05314  Biso   1.000  C
  C525     1.0000 0.52495  0.72945  0.09465  Biso   1.000  C
  C526     1.0000 0.55503  0.75457  0.00903  Biso   1.000  C
  C527     1.0000 0.60728  0.68628  0.05484  Biso   1.000  C
  C528     1.0000 0.64583  0.68973  0.05359  Biso   1.000  C
  C529     1.0000 0.87950  0.04890  0.56670  Biso   1.000  C
  C530     1.0000 0.82930  0.05050  0.58810  Biso   1.000  C
  C531     1.0000 0.80540  0.05260  0.63320  Biso   1.000  C
  C532     1.0000 0.80730  0.05050  0.56610  Biso   1.000  C
  C533     1.0000 0.75900  0.05280  0.65740  Biso   1.000  C
  C534     1.0000 0.73722  0.05374  0.63286  Biso   1.000  C
  C535     1.0000 0.76243  0.05265  0.58747  Biso   1.000  C
  C536     1.0000 0.73244  0.05314  0.56684  Biso   1.000  C
  C537     1.0000 0.72945  0.09465  0.52495  Biso   1.000  C
  C538     1.0000 0.75457  0.00903  0.55503  Biso   1.000  C
  C539     1.0000 0.68628  0.05484  0.60728  Biso   1.000  C
  C540     1.0000 0.68973  0.05359  0.64583  Biso   1.000  C
  C541     1.0000 0.50490  0.56670  0.04890  Biso   1.000  C
  C542     1.0000 0.53210  0.58810  0.05050  Biso   1.000  C
  C543     1.0000 0.50880  0.63320  0.05260  Biso   1.000  C
  C544     1.0000 0.57610  0.56610  0.05050  Biso   1.000  C
  C545     1.0000 0.53080  0.65740  0.05280  Biso   1.000  C
  C546     1.0000 0.57618  0.63286  0.05374  Biso   1.000  C
  C547     1.0000 0.59745  0.58747  0.05265  Biso   1.000  C
  C548     1.0000 0.64758  0.56684  0.05314  Biso   1.000  C
  C549     1.0000 0.65095  0.52495  0.09465  Biso   1.000  C
  C550     1.0000 0.68137  0.55503  0.00903  Biso   1.000  C
  C551     1.0000 0.65160  0.60728  0.05484  Biso   1.000  C
  C552     1.0000 0.61085  0.64583  0.05359  Biso   1.000  C
  C553     1.0000 0.56670  0.50490  0.87950  Biso   1.000  C
  C554     1.0000 0.58810  0.53210  0.82930  Biso   1.000  C
  C555     1.0000 0.63320  0.50880  0.80540  Biso   1.000  C
  C556     1.0000 0.56610  0.57610  0.80730  Biso   1.000  C
  C557     1.0000 0.65740  0.53080  0.75900  Biso   1.000  C
  C558     1.0000 0.63286  0.57618  0.73722  Biso   1.000  C
  C559     1.0000 0.58747  0.59745  0.76243  Biso   1.000  C
  C560     1.0000 0.56684  0.64758  0.73244  Biso   1.000  C
  C561     1.0000 0.52495  0.65095  0.72945  Biso   1.000  C
  C562     1.0000 0.55503  0.68137  0.75457  Biso   1.000  C
  C563     1.0000 0.60728  0.65160  0.68628  Biso   1.000  C
  C564     1.0000 0.64583  0.61085  0.68973  Biso   1.000  C
  C565     1.0000 0.04890  0.87950  0.50490  Biso   1.000  C
  C566     1.0000 0.05050  0.82930  0.53210  Biso   1.000  C
  C567     1.0000 0.05260  0.80540  0.50880  Biso   1.000  C
  C568     1.0000 0.05050  0.80730  0.57610  Biso   1.000  C
  C569     1.0000 0.05280  0.75900  0.53080  Biso   1.000  C
  C570     1.0000 0.05374  0.73722  0.57618  Biso   1.000  C
  C571     1.0000 0.05265  0.76243  0.59745  Biso   1.000  C
  C572     1.0000 0.05314  0.73244  0.64758  Biso   1.000  C
  C573     1.0000 0.09465  0.72945  0.65095  Biso   1.000  C
  C574     1.0000 0.00903  0.75457  0.68137  Biso   1.000  C
  C575     1.0000 0.05484  0.68628  0.65160  Biso   1.000  C
  C576     1.0000 0.05359  0.68973  0.61085  Biso   1.000  C
  Cl1      1.0000 0.49195  0.00805  0.00805  Biso   1.000  Cl
  Cl2      1.0000 0.00805  0.49195  0.49195  Biso   1.000  Cl
  Cl3      1.0000 0.49195  0.00805  0.49195  Biso   1.000  Cl
  Cl4      1.0000 0.00805  0.49195  0.00805  Biso   1.000  Cl
  Cl5      1.0000 0.49195  0.49195  0.00805  Biso   1.000  Cl
  Cl6      1.0000 0.00805  0.00805  0.49195  Biso   1.000  Cl
  Cl7      1.0000 0.50805  0.99195  0.99195  Biso   1.000  Cl
  Cl8      1.0000 0.99195  0.50805  0.50805  Biso   1.000  Cl
  Cl9      1.0000 0.50805  0.99195  0.50805  Biso   1.000  Cl
  Cl10     1.0000 0.99195  0.50805  0.99195  Biso   1.000  Cl
  Cl11     1.0000 0.50805  0.50805  0.99195  Biso   1.000  Cl
  Cl12     1.0000 0.99195  0.99195  0.50805  Biso   1.000  Cl
  O1       1.0000 0.54630  0.08750  0.96710  Biso   1.000  O
  O2       1.0000 0.52690  0.04150  0.02670  Biso   1.000  O
  O3       1.0000 0.08750  0.54630  0.39910  Biso   1.000  O
  O4       1.0000 0.04150  0.52690  0.40490  Biso   1.000  O
  O5       1.0000 0.96710  0.39910  0.54630  Biso   1.000  O
  O6       1.0000 0.02670  0.40490  0.52690  Biso   1.000  O
  O7       1.0000 0.39910  0.96710  0.08750  Biso   1.000  O
  O8       1.0000 0.40490  0.02670  0.04150  Biso   1.000  O
  O9       1.0000 0.54630  0.96710  0.39910  Biso   1.000  O
  O10      1.0000 0.52690  0.02670  0.40490  Biso   1.000  O
  O11      1.0000 0.08750  0.39910  0.96710  Biso   1.000  O
  O12      1.0000 0.04150  0.40490  0.02670  Biso   1.000  O
  O13      1.0000 0.96710  0.54630  0.08750  Biso   1.000  O
  O14      1.0000 0.02670  0.52690  0.04150  Biso   1.000  O
  O15      1.0000 0.39910  0.08750  0.54630  Biso   1.000  O
  O16      1.0000 0.40490  0.04150  0.52690  Biso   1.000  O
  O17      1.0000 0.54630  0.39910  0.08750  Biso   1.000  O
  O18      1.0000 0.52690  0.40490  0.04150  Biso   1.000  O
  O19      1.0000 0.08750  0.96710  0.54630  Biso   1.000  O
  O20      1.0000 0.04150  0.02670  0.52690  Biso   1.000  O
  O21      1.0000 0.96710  0.08750  0.39910  Biso   1.000  O
  O22      1.0000 0.02670  0.04150  0.40490  Biso   1.000  O
  O23      1.0000 0.39910  0.54630  0.96710  Biso   1.000  O
  O24      1.0000 0.40490  0.52690  0.02670  Biso   1.000  O
  O25      1.0000 0.41250  0.95370  0.53290  Biso   1.000  O
  O26      1.0000 0.45850  0.97310  0.47330  Biso   1.000  O
  O27      1.0000 0.95370  0.41250  0.10090  Biso   1.000  O
  O28      1.0000 0.97310  0.45850  0.09510  Biso   1.000  O
  O29      1.0000 0.10090  0.53290  0.95370  Biso   1.000  O
  O30      1.0000 0.09510  0.47330  0.97310  Biso   1.000  O
  O31      1.0000 0.53290  0.10090  0.41250  Biso   1.000  O
  O32      1.0000 0.47330  0.09510  0.45850  Biso   1.000  O
  O33      1.0000 0.53290  0.95370  0.10090  Biso   1.000  O
  O34      1.0000 0.47330  0.97310  0.09510  Biso   1.000  O
  O35      1.0000 0.10090  0.41250  0.53290  Biso   1.000  O
  O36      1.0000 0.09510  0.45850  0.47330  Biso   1.000  O
  O37      1.0000 0.95370  0.53290  0.41250  Biso   1.000  O
  O38      1.0000 0.97310  0.47330  0.45850  Biso   1.000  O
  O39      1.0000 0.41250  0.10090  0.95370  Biso   1.000  O
  O40      1.0000 0.45850  0.09510  0.97310  Biso   1.000  O
  O41      1.0000 0.10090  0.95370  0.41250  Biso   1.000  O
  O42      1.0000 0.09510  0.97310  0.45850  Biso   1.000  O
  O43      1.0000 0.53290  0.41250  0.95370  Biso   1.000  O
  O44      1.0000 0.47330  0.45850  0.97310  Biso   1.000  O
  O45      1.0000 0.41250  0.53290  0.10090  Biso   1.000  O
  O46      1.0000 0.45850  0.47330  0.09510  Biso   1.000  O
  O47      1.0000 0.95370  0.10090  0.53290  Biso   1.000  O
  O48      1.0000 0.97310  0.09510  0.47330  Biso   1.000  O
  O49      1.0000 0.45370  0.91250  0.03290  Biso   1.000  O
  O50      1.0000 0.47310  0.95850  0.97330  Biso   1.000  O
  O51      1.0000 0.91250  0.45370  0.60090  Biso   1.000  O
  O52      1.0000 0.95850  0.47310  0.59510  Biso   1.000  O
  O53      1.0000 0.03290  0.60090  0.45370  Biso   1.000  O
  O54      1.0000 0.97330  0.59510  0.47310  Biso   1.000  O
  O55      1.0000 0.60090  0.03290  0.91250  Biso   1.000  O
  O56      1.0000 0.59510  0.97330  0.95850  Biso   1.000  O
  O57      1.0000 0.45370  0.03290  0.60090  Biso   1.000  O
  O58      1.0000 0.47310  0.97330  0.59510  Biso   1.000  O
  O59      1.0000 0.91250  0.60090  0.03290  Biso   1.000  O
  O60      1.0000 0.95850  0.59510  0.97330  Biso   1.000  O
  O61      1.0000 0.03290  0.45370  0.91250  Biso   1.000  O
  O62      1.0000 0.97330  0.47310  0.95850  Biso   1.000  O
  O63      1.0000 0.60090  0.91250  0.45370  Biso   1.000  O
  O64      1.0000 0.59510  0.95850  0.47310  Biso   1.000  O
  O65      1.0000 0.45370  0.60090  0.91250  Biso   1.000  O
  O66      1.0000 0.47310  0.59510  0.95850  Biso   1.000  O
  O67      1.0000 0.91250  0.03290  0.45370  Biso   1.000  O
  O68      1.0000 0.95850  0.97330  0.47310  Biso   1.000  O
  O69      1.0000 0.03290  0.91250  0.60090  Biso   1.000  O
  O70      1.0000 0.97330  0.95850  0.59510  Biso   1.000  O
  O71      1.0000 0.60090  0.45370  0.03290  Biso   1.000  O
  O72      1.0000 0.59510  0.47310  0.97330  Biso   1.000  O
  O73      1.0000 0.58750  0.04630  0.46710  Biso   1.000  O
  O74      1.0000 0.54150  0.02690  0.52670  Biso   1.000  O
  O75      1.0000 0.04630  0.58750  0.89910  Biso   1.000  O
  O76      1.0000 0.02690  0.54150  0.90490  Biso   1.000  O
  O77      1.0000 0.89910  0.46710  0.04630  Biso   1.000  O
  O78      1.0000 0.90490  0.52670  0.02690  Biso   1.000  O
  O79      1.0000 0.46710  0.89910  0.58750  Biso   1.000  O
  O80      1.0000 0.52670  0.90490  0.54150  Biso   1.000  O
  O81      1.0000 0.46710  0.04630  0.89910  Biso   1.000  O
  O82      1.0000 0.52670  0.02690  0.90490  Biso   1.000  O
  O83      1.0000 0.89910  0.58750  0.46710  Biso   1.000  O
  O84      1.0000 0.90490  0.54150  0.52670  Biso   1.000  O
  O85      1.0000 0.04630  0.46710  0.58750  Biso   1.000  O
  O86      1.0000 0.02690  0.52670  0.54150  Biso   1.000  O
  O87      1.0000 0.58750  0.89910  0.04630  Biso   1.000  O
  O88      1.0000 0.54150  0.90490  0.02690  Biso   1.000  O
  O89      1.0000 0.89910  0.04630  0.58750  Biso   1.000  O
  O90      1.0000 0.90490  0.02690  0.54150  Biso   1.000  O
  O91      1.0000 0.46710  0.58750  0.04630  Biso   1.000  O
  O92      1.0000 0.52670  0.54150  0.02690  Biso   1.000  O
  O93      1.0000 0.58750  0.46710  0.89910  Biso   1.000  O
  O94      1.0000 0.54150  0.52670  0.90490  Biso   1.000  O
  O95      1.0000 0.04630  0.89910  0.46710  Biso   1.000  O
  O96      1.0000 0.02690  0.90490  0.52670  Biso   1.000  O
  Ni25     1.0000 0.25000  0.25000  0.25000  Biso   1.000  Ni
  Ni26     1.0000 0.75000  0.75000  0.75000  Biso   1.000  Ni
  Cu1      1.0000 0.25894  0.77034  0.24312  Biso   1.000  Cu
  Cu2      1.0000 0.78776  0.24152  0.71430  Biso   1.000  Cu
  Cu3      1.0000 0.23918  0.69294  0.26288  Biso   1.000  Cu
  Cu4      1.0000 0.71036  0.22176  0.79170  Biso   1.000  Cu
  Cu5      1.0000 0.25894  0.22176  0.71430  Biso   1.000  Cu
  Cu6      1.0000 0.78776  0.69294  0.24312  Biso   1.000  Cu
  Cu7      1.0000 0.23918  0.24152  0.79170  Biso   1.000  Cu
  Cu8      1.0000 0.71036  0.77034  0.26288  Biso   1.000  Cu
  Cu9      1.0000 0.25894  0.69294  0.79170  Biso   1.000  Cu
  Cu10     1.0000 0.78776  0.22176  0.26288  Biso   1.000  Cu
  Cu11     1.0000 0.23918  0.77034  0.71430  Biso   1.000  Cu
  Cu12     1.0000 0.71036  0.24152  0.24312  Biso   1.000  Cu
  H433     1.0000 0.25931  0.79614  0.98167  Biso   1.000  H
  H434     1.0000 0.27563  0.85086  0.02485  Biso   1.000  H
  H435     1.0000 0.28041  0.82459  0.09570  Biso   1.000  H
  H436     1.0000 0.24469  0.71520  0.13201  Biso   1.000  H
  H437     1.0000 0.24091  0.74370  0.06038  Biso   1.000  H
  H438     1.0000 0.81356  0.24189  0.95461  Biso   1.000  H
  H439     1.0000 0.86829  0.25820  0.84039  Biso   1.000  H
  H440     1.0000 0.84202  0.26298  0.79104  Biso   1.000  H
  H441     1.0000 0.73262  0.22726  0.89481  Biso   1.000  H
  H442     1.0000 0.76113  0.22348  0.94675  Biso   1.000  H
  H443     1.0000 0.97773  0.93325  0.26325  Biso   1.000  H
  H444     1.0000 0.02092  0.81902  0.27957  Biso   1.000  H
  H445     1.0000 0.09176  0.76967  0.28434  Biso   1.000  H
  H446     1.0000 0.12808  0.87345  0.24862  Biso   1.000  H
  H447     1.0000 0.05644  0.92539  0.24484  Biso   1.000  H
  H448     1.0000 0.95067  0.96031  0.81750  Biso   1.000  H
  H449     1.0000 0.83645  0.00349  0.87223  Biso   1.000  H
  H450     1.0000 0.78710  0.07433  0.84596  Biso   1.000  H
  H451     1.0000 0.89087  0.11065  0.73656  Biso   1.000  H
  H452     1.0000 0.94281  0.03901  0.76507  Biso   1.000  H
  H453     1.0000 0.25931  0.96031  0.95461  Biso   1.000  H
  H454     1.0000 0.27563  0.00349  0.84039  Biso   1.000  H
  H455     1.0000 0.28041  0.07433  0.79104  Biso   1.000  H
  H456     1.0000 0.24469  0.11065  0.89481  Biso   1.000  H
  H457     1.0000 0.24091  0.03901  0.94675  Biso   1.000  H
  H458     1.0000 0.81356  0.93325  0.98167  Biso   1.000  H
  H459     1.0000 0.86829  0.81902  0.02485  Biso   1.000  H
  H460     1.0000 0.84202  0.76967  0.09570  Biso   1.000  H
  H461     1.0000 0.73262  0.87345  0.13201  Biso   1.000  H
  H462     1.0000 0.76113  0.92539  0.06038  Biso   1.000  H
  H463     1.0000 0.97773  0.24189  0.81750  Biso   1.000  H
  H464     1.0000 0.02092  0.25820  0.87223  Biso   1.000  H
  H465     1.0000 0.09176  0.26298  0.84596  Biso   1.000  H
  H466     1.0000 0.12808  0.22726  0.73656  Biso   1.000  H
  H467     1.0000 0.05644  0.22348  0.76507  Biso   1.000  H
  H468     1.0000 0.95067  0.79614  0.26325  Biso   1.000  H
  H469     1.0000 0.83645  0.85086  0.27957  Biso   1.000  H
  H470     1.0000 0.78710  0.82459  0.28434  Biso   1.000  H
  H471     1.0000 0.89087  0.71520  0.24862  Biso   1.000  H
  H472     1.0000 0.94281  0.74370  0.24484  Biso   1.000  H
  H473     1.0000 0.25931  0.93325  0.81750  Biso   1.000  H
  H474     1.0000 0.27563  0.81902  0.87223  Biso   1.000  H
  H475     1.0000 0.28041  0.76967  0.84596  Biso   1.000  H
  H476     1.0000 0.24469  0.87345  0.73656  Biso   1.000  H
  H477     1.0000 0.24091  0.92539  0.76507  Biso   1.000  H
  H478     1.0000 0.81356  0.96031  0.26325  Biso   1.000  H
  H479     1.0000 0.86829  0.00349  0.27957  Biso   1.000  H
  H480     1.0000 0.84202  0.07433  0.28434  Biso   1.000  H
  H481     1.0000 0.73262  0.11065  0.24862  Biso   1.000  H
  H482     1.0000 0.76113  0.03901  0.24484  Biso   1.000  H
  H483     1.0000 0.97773  0.79614  0.95461  Biso   1.000  H
  H484     1.0000 0.02092  0.85086  0.84039  Biso   1.000  H
  H485     1.0000 0.09176  0.82459  0.79104  Biso   1.000  H
  H486     1.0000 0.12808  0.71520  0.89481  Biso   1.000  H
  H487     1.0000 0.05644  0.74370  0.94675  Biso   1.000  H
  H488     1.0000 0.95067  0.24189  0.98167  Biso   1.000  H
  H489     1.0000 0.83645  0.25820  0.02485  Biso   1.000  H
  H490     1.0000 0.78710  0.26298  0.09570  Biso   1.000  H
  H491     1.0000 0.89087  0.22726  0.13201  Biso   1.000  H
  H492     1.0000 0.94281  0.22348  0.06038  Biso   1.000  H
  H493     1.0000 0.23882  0.66714  0.52433  Biso   1.000  H
  H494     1.0000 0.22250  0.61242  0.48115  Biso   1.000  H
  H495     1.0000 0.21772  0.63868  0.41031  Biso   1.000  H
  H496     1.0000 0.25344  0.74808  0.37399  Biso   1.000  H
  H497     1.0000 0.25722  0.71957  0.44563  Biso   1.000  H
  H498     1.0000 0.68456  0.22139  0.55139  Biso   1.000  H
  H499     1.0000 0.62984  0.20507  0.66562  Biso   1.000  H
  H500     1.0000 0.65611  0.20030  0.71497  Biso   1.000  H
  H501     1.0000 0.76551  0.23602  0.61119  Biso   1.000  H
  H502     1.0000 0.73700  0.23980  0.55926  Biso   1.000  H
  H503     1.0000 0.52039  0.53003  0.24275  Biso   1.000  H
  H504     1.0000 0.47721  0.64425  0.22644  Biso   1.000  H
  H505     1.0000 0.40637  0.69361  0.22166  Biso   1.000  H
  H506     1.0000 0.37005  0.58983  0.25738  Biso   1.000  H
  H507     1.0000 0.44169  0.53789  0.26116  Biso   1.000  H
  H508     1.0000 0.54746  0.50297  0.68850  Biso   1.000  H
  H509     1.0000 0.66168  0.45979  0.63378  Biso   1.000  H
  H510     1.0000 0.71103  0.38894  0.66005  Biso   1.000  H
  H511     1.0000 0.60725  0.35263  0.76944  Biso   1.000  H
  H512     1.0000 0.55532  0.42427  0.74094  Biso   1.000  H
  H513     1.0000 0.23882  0.50297  0.55139  Biso   1.000  H
  H514     1.0000 0.22250  0.45979  0.66562  Biso   1.000  H
  H515     1.0000 0.21772  0.38894  0.71497  Biso   1.000  H
  H516     1.0000 0.25344  0.35263  0.61119  Biso   1.000  H
  H517     1.0000 0.25722  0.42427  0.55926  Biso   1.000  H
  H518     1.0000 0.68456  0.53003  0.52433  Biso   1.000  H
  H519     1.0000 0.62984  0.64425  0.48115  Biso   1.000  H
  H520     1.0000 0.65611  0.69361  0.41031  Biso   1.000  H
  H521     1.0000 0.76551  0.58983  0.37399  Biso   1.000  H
  H522     1.0000 0.73700  0.53789  0.44563  Biso   1.000  H
  H523     1.0000 0.52039  0.22139  0.68850  Biso   1.000  H
  H524     1.0000 0.47721  0.20507  0.63378  Biso   1.000  H
  H525     1.0000 0.40637  0.20030  0.66005  Biso   1.000  H
  H526     1.0000 0.37005  0.23602  0.76944  Biso   1.000  H
  H527     1.0000 0.44169  0.23980  0.74094  Biso   1.000  H
  H528     1.0000 0.54746  0.66714  0.24275  Biso   1.000  H
  H529     1.0000 0.66168  0.61242  0.22644  Biso   1.000  H
  H530     1.0000 0.71103  0.63868  0.22166  Biso   1.000  H
  H531     1.0000 0.60725  0.74808  0.25738  Biso   1.000  H
  H532     1.0000 0.55532  0.71957  0.26116  Biso   1.000  H
  H533     1.0000 0.23882  0.53003  0.68850  Biso   1.000  H
  H534     1.0000 0.22250  0.64425  0.63378  Biso   1.000  H
  H535     1.0000 0.21772  0.69361  0.66005  Biso   1.000  H
  H536     1.0000 0.25344  0.58983  0.76944  Biso   1.000  H
  H537     1.0000 0.25722  0.53789  0.74094  Biso   1.000  H
  H538     1.0000 0.68456  0.50297  0.24275  Biso   1.000  H
  H539     1.0000 0.62984  0.45979  0.22644  Biso   1.000  H
  H540     1.0000 0.65611  0.38894  0.22166  Biso   1.000  H
  H541     1.0000 0.76551  0.35263  0.25738  Biso   1.000  H
  H542     1.0000 0.73700  0.42427  0.26116  Biso   1.000  H
  H543     1.0000 0.52039  0.66714  0.55139  Biso   1.000  H
  H544     1.0000 0.47721  0.61242  0.66562  Biso   1.000  H
  H545     1.0000 0.40637  0.63868  0.71497  Biso   1.000  H
  H546     1.0000 0.37005  0.74808  0.61119  Biso   1.000  H
  H547     1.0000 0.44169  0.71957  0.55926  Biso   1.000  H
  H548     1.0000 0.54746  0.22139  0.52433  Biso   1.000  H
  H549     1.0000 0.66168  0.20507  0.48115  Biso   1.000  H
  H550     1.0000 0.71103  0.20030  0.41031  Biso   1.000  H
  H551     1.0000 0.60725  0.23602  0.37399  Biso   1.000  H
  H552     1.0000 0.55532  0.23980  0.44563  Biso   1.000  H
  C577     1.0000 0.25583  0.85813  0.95093  Biso   1.000  C
  C578     1.0000 0.25782  0.80101  0.03391  Biso   1.000  C
  C579     1.0000 0.26896  0.82350  0.04664  Biso   1.000  C
  C580     1.0000 0.27105  0.80828  0.08933  Biso   1.000  C
  C581     1.0000 0.25971  0.76908  0.12475  Biso   1.000  C
  C582     1.0000 0.25056  0.74798  0.11022  Biso   1.000  C
  C583     1.0000 0.24847  0.76141  0.06694  Biso   1.000  C
  C584     1.0000 0.26090  0.75833  0.17012  Biso   1.000  C
  C585     1.0000 0.87555  0.23840  0.92685  Biso   1.000  C
  C586     1.0000 0.81844  0.24039  0.89899  Biso   1.000  C
  C587     1.0000 0.84093  0.25154  0.85262  Biso   1.000  C
  C588     1.0000 0.82570  0.25363  0.82307  Biso   1.000  C
  C589     1.0000 0.78650  0.24228  0.83820  Biso   1.000  C
  C590     1.0000 0.76541  0.23313  0.88297  Biso   1.000  C
  C591     1.0000 0.77884  0.23104  0.91491  Biso   1.000  C
  C592     1.0000 0.77575  0.24348  0.80238  Biso   1.000  C
  C593     1.0000 0.94699  0.90549  0.25977  Biso   1.000  C
  C594     1.0000 0.02997  0.87763  0.26176  Biso   1.000  C
  C595     1.0000 0.04271  0.83126  0.27290  Biso   1.000  C
  C596     1.0000 0.08539  0.80171  0.27499  Biso   1.000  C
  C597     1.0000 0.12081  0.81683  0.26365  Biso   1.000  C
  C598     1.0000 0.10629  0.86161  0.25449  Biso   1.000  C
  C599     1.0000 0.06300  0.89355  0.25241  Biso   1.000  C
  C600     1.0000 0.16618  0.78101  0.26484  Biso   1.000  C
  C601     1.0000 0.92291  0.92956  0.87949  Biso   1.000  C
  C602     1.0000 0.89505  0.01255  0.82238  Biso   1.000  C
  C603     1.0000 0.84869  0.02528  0.84486  Biso   1.000  C
  C604     1.0000 0.81914  0.06797  0.82964  Biso   1.000  C
  C605     1.0000 0.83426  0.10339  0.79044  Biso   1.000  C
  C606     1.0000 0.87903  0.08886  0.76935  Biso   1.000  C
  C607     1.0000 0.91097  0.04558  0.78278  Biso   1.000  C
  C608     1.0000 0.79844  0.14876  0.77969  Biso   1.000  C
  C609     1.0000 0.25583  0.92956  0.92685  Biso   1.000  C
  C610     1.0000 0.25782  0.01255  0.89899  Biso   1.000  C
  C611     1.0000 0.26896  0.02528  0.85262  Biso   1.000  C
  C612     1.0000 0.27105  0.06797  0.82307  Biso   1.000  C
  C613     1.0000 0.25971  0.10339  0.83820  Biso   1.000  C
  C614     1.0000 0.25056  0.08886  0.88297  Biso   1.000  C
  C615     1.0000 0.24847  0.04558  0.91491  Biso   1.000  C
  C616     1.0000 0.26090  0.14876  0.80238  Biso   1.000  C
  C617     1.0000 0.87555  0.90549  0.95093  Biso   1.000  C
  C618     1.0000 0.81844  0.87763  0.03391  Biso   1.000  C
  C619     1.0000 0.84093  0.83126  0.04664  Biso   1.000  C
  C620     1.0000 0.82570  0.80171  0.08933  Biso   1.000  C
  C621     1.0000 0.78650  0.81683  0.12475  Biso   1.000  C
  C622     1.0000 0.76541  0.86161  0.11022  Biso   1.000  C
  C623     1.0000 0.77884  0.89355  0.06694  Biso   1.000  C
  C624     1.0000 0.77575  0.78101  0.17012  Biso   1.000  C
  C625     1.0000 0.94699  0.23840  0.87949  Biso   1.000  C
  C626     1.0000 0.02997  0.24039  0.82238  Biso   1.000  C
  C627     1.0000 0.04271  0.25154  0.84486  Biso   1.000  C
  C628     1.0000 0.08539  0.25363  0.82964  Biso   1.000  C
  C629     1.0000 0.12081  0.24228  0.79044  Biso   1.000  C
  C630     1.0000 0.10629  0.23313  0.76935  Biso   1.000  C
  C631     1.0000 0.06300  0.23104  0.78278  Biso   1.000  C
  C632     1.0000 0.16618  0.24348  0.77969  Biso   1.000  C
  C633     1.0000 0.92291  0.85813  0.25977  Biso   1.000  C
  C634     1.0000 0.89505  0.80101  0.26176  Biso   1.000  C
  C635     1.0000 0.84869  0.82350  0.27290  Biso   1.000  C
  C636     1.0000 0.81914  0.80828  0.27499  Biso   1.000  C
  C637     1.0000 0.83426  0.76908  0.26365  Biso   1.000  C
  C638     1.0000 0.87903  0.74798  0.25449  Biso   1.000  C
  C639     1.0000 0.91097  0.76141  0.25241  Biso   1.000  C
  C640     1.0000 0.79844  0.75833  0.26484  Biso   1.000  C
  C641     1.0000 0.25583  0.90549  0.87949  Biso   1.000  C
  C642     1.0000 0.25782  0.87763  0.82238  Biso   1.000  C
  C643     1.0000 0.26896  0.83126  0.84486  Biso   1.000  C
  C644     1.0000 0.27105  0.80171  0.82964  Biso   1.000  C
  C645     1.0000 0.25971  0.81683  0.79044  Biso   1.000  C
  C646     1.0000 0.25056  0.86161  0.76935  Biso   1.000  C
  C647     1.0000 0.24847  0.89355  0.78278  Biso   1.000  C
  C648     1.0000 0.26090  0.78101  0.77969  Biso   1.000  C
  C649     1.0000 0.87555  0.92956  0.25977  Biso   1.000  C
  C650     1.0000 0.81844  0.01255  0.26176  Biso   1.000  C
  C651     1.0000 0.84093  0.02528  0.27290  Biso   1.000  C
  C652     1.0000 0.82570  0.06797  0.27499  Biso   1.000  C
  C653     1.0000 0.78650  0.10339  0.26365  Biso   1.000  C
  C654     1.0000 0.76541  0.08886  0.25449  Biso   1.000  C
  C655     1.0000 0.77884  0.04558  0.25241  Biso   1.000  C
  C656     1.0000 0.77575  0.14876  0.26484  Biso   1.000  C
  C657     1.0000 0.94699  0.85813  0.92685  Biso   1.000  C
  C658     1.0000 0.02997  0.80101  0.89899  Biso   1.000  C
  C659     1.0000 0.04271  0.82350  0.85262  Biso   1.000  C
  C660     1.0000 0.08539  0.80828  0.82307  Biso   1.000  C
  C661     1.0000 0.12081  0.76908  0.83820  Biso   1.000  C
  C662     1.0000 0.10629  0.74798  0.88297  Biso   1.000  C
  C663     1.0000 0.06300  0.76141  0.91491  Biso   1.000  C
  C664     1.0000 0.16618  0.75833  0.80238  Biso   1.000  C
  C665     1.0000 0.92291  0.23840  0.95093  Biso   1.000  C
  C666     1.0000 0.89505  0.24039  0.03391  Biso   1.000  C
  C667     1.0000 0.84869  0.25154  0.04664  Biso   1.000  C
  C668     1.0000 0.81914  0.25363  0.08933  Biso   1.000  C
  C669     1.0000 0.83426  0.24228  0.12475  Biso   1.000  C
  C670     1.0000 0.87903  0.23313  0.11022  Biso   1.000  C
  C671     1.0000 0.91097  0.23104  0.06694  Biso   1.000  C
  C672     1.0000 0.79844  0.24348  0.17012  Biso   1.000  C
  C673     1.0000 0.24230  0.60515  0.55508  Biso   1.000  C
  C674     1.0000 0.24031  0.66226  0.47210  Biso   1.000  C
  C675     1.0000 0.22916  0.63978  0.45936  Biso   1.000  C
  C676     1.0000 0.22708  0.65500  0.41668  Biso   1.000  C
  C677     1.0000 0.23842  0.69420  0.38125  Biso   1.000  C
  C678     1.0000 0.24757  0.71530  0.39578  Biso   1.000  C
  C679     1.0000 0.24966  0.70186  0.43906  Biso   1.000  C
  C680     1.0000 0.23722  0.70495  0.33588  Biso   1.000  C
  C681     1.0000 0.62258  0.22487  0.57915  Biso   1.000  C
  C682     1.0000 0.67969  0.22288  0.60701  Biso   1.000  C
  C683     1.0000 0.65720  0.21174  0.65338  Biso   1.000  C
  C684     1.0000 0.67243  0.20965  0.68293  Biso   1.000  C
  C685     1.0000 0.71163  0.22099  0.66781  Biso   1.000  C
  C686     1.0000 0.73272  0.23015  0.62303  Biso   1.000  C
  C687     1.0000 0.71929  0.23224  0.59109  Biso   1.000  C
  C688     1.0000 0.72237  0.21980  0.70363  Biso   1.000  C
  C689     1.0000 0.55114  0.55779  0.24624  Biso   1.000  C
  C690     1.0000 0.46816  0.58565  0.24425  Biso   1.000  C
  C691     1.0000 0.45542  0.63202  0.23310  Biso   1.000  C
  C692     1.0000 0.41274  0.66157  0.23101  Biso   1.000  C
  C693     1.0000 0.37732  0.64644  0.24236  Biso   1.000  C
  C694     1.0000 0.39184  0.60167  0.25151  Biso   1.000  C
  C695     1.0000 0.43512  0.56973  0.25360  Biso   1.000  C
  C696     1.0000 0.33195  0.68226  0.24116  Biso   1.000  C
  C697     1.0000 0.57522  0.53371  0.62652  Biso   1.000  C
  C698     1.0000 0.60308  0.45073  0.68363  Biso   1.000  C
  C699     1.0000 0.64944  0.43800  0.66114  Biso   1.000  C
  C700     1.0000 0.67899  0.39531  0.67636  Biso   1.000  C
  C701     1.0000 0.66387  0.35989  0.71557  Biso   1.000  C
  C702     1.0000 0.61909  0.37442  0.73666  Biso   1.000  C
  C703     1.0000 0.58716  0.41770  0.72323  Biso   1.000  C
  C704     1.0000 0.69969  0.31452  0.72631  Biso   1.000  C
  C705     1.0000 0.24230  0.53371  0.57915  Biso   1.000  C
  C706     1.0000 0.24031  0.45073  0.60701  Biso   1.000  C
  C707     1.0000 0.22916  0.43800  0.65338  Biso   1.000  C
  C708     1.0000 0.22708  0.39531  0.68293  Biso   1.000  C
  C709     1.0000 0.23842  0.35989  0.66781  Biso   1.000  C
  C710     1.0000 0.24757  0.37442  0.62303  Biso   1.000  C
  C711     1.0000 0.24966  0.41770  0.59109  Biso   1.000  C
  C712     1.0000 0.23722  0.31452  0.70363  Biso   1.000  C
  C713     1.0000 0.62258  0.55779  0.55508  Biso   1.000  C
  C714     1.0000 0.67969  0.58565  0.47210  Biso   1.000  C
  C715     1.0000 0.65720  0.63202  0.45936  Biso   1.000  C
  C716     1.0000 0.67243  0.66157  0.41668  Biso   1.000  C
  C717     1.0000 0.71163  0.64644  0.38125  Biso   1.000  C
  C718     1.0000 0.73272  0.60167  0.39578  Biso   1.000  C
  C719     1.0000 0.71929  0.56973  0.43906  Biso   1.000  C
  C720     1.0000 0.72237  0.68226  0.33588  Biso   1.000  C
  C721     1.0000 0.55114  0.22487  0.62652  Biso   1.000  C
  C722     1.0000 0.46816  0.22288  0.68363  Biso   1.000  C
  C723     1.0000 0.45542  0.21174  0.66114  Biso   1.000  C
  C724     1.0000 0.41274  0.20965  0.67636  Biso   1.000  C
  C725     1.0000 0.37732  0.22099  0.71557  Biso   1.000  C
  C726     1.0000 0.39184  0.23015  0.73666  Biso   1.000  C
  C727     1.0000 0.43512  0.23224  0.72323  Biso   1.000  C
  C728     1.0000 0.33195  0.21980  0.72631  Biso   1.000  C
  C729     1.0000 0.57522  0.60515  0.24624  Biso   1.000  C
  C730     1.0000 0.60308  0.66226  0.24425  Biso   1.000  C
  C731     1.0000 0.64944  0.63978  0.23310  Biso   1.000  C
  C732     1.0000 0.67899  0.65500  0.23101  Biso   1.000  C
  C733     1.0000 0.66387  0.69420  0.24236  Biso   1.000  C
  C734     1.0000 0.61910  0.71530  0.25151  Biso   1.000  C
  C735     1.0000 0.58716  0.70186  0.25360  Biso   1.000  C
  C736     1.0000 0.69969  0.70495  0.24116  Biso   1.000  C
  C737     1.0000 0.24230  0.55779  0.62652  Biso   1.000  C
  C738     1.0000 0.24031  0.58565  0.68363  Biso   1.000  C
  C739     1.0000 0.22916  0.63202  0.66114  Biso   1.000  C
  C740     1.0000 0.22708  0.66157  0.67636  Biso   1.000  C
  C741     1.0000 0.23842  0.64644  0.71557  Biso   1.000  C
  C742     1.0000 0.24757  0.60167  0.73666  Biso   1.000  C
  C743     1.0000 0.24966  0.56973  0.72323  Biso   1.000  C
  C744     1.0000 0.23722  0.68226  0.72631  Biso   1.000  C
  C745     1.0000 0.62258  0.53371  0.24624  Biso   1.000  C
  C746     1.0000 0.67969  0.45073  0.24425  Biso   1.000  C
  C747     1.0000 0.65720  0.43800  0.23310  Biso   1.000  C
  C748     1.0000 0.67243  0.39531  0.23101  Biso   1.000  C
  C749     1.0000 0.71163  0.35989  0.24236  Biso   1.000  C
  C750     1.0000 0.73272  0.37442  0.25151  Biso   1.000  C
  C751     1.0000 0.71929  0.41770  0.25360  Biso   1.000  C
  C752     1.0000 0.72237  0.31452  0.24116  Biso   1.000  C
  C753     1.0000 0.55114  0.60515  0.57915  Biso   1.000  C
  C754     1.0000 0.46816  0.66226  0.60701  Biso   1.000  C
  C755     1.0000 0.45542  0.63978  0.65338  Biso   1.000  C
  C756     1.0000 0.41274  0.65500  0.68293  Biso   1.000  C
  C757     1.0000 0.37732  0.69420  0.66781  Biso   1.000  C
  C758     1.0000 0.39184  0.71530  0.62303  Biso   1.000  C
  C759     1.0000 0.43512  0.70186  0.59109  Biso   1.000  C
  C760     1.0000 0.33195  0.70495  0.70363  Biso   1.000  C
  C761     1.0000 0.57522  0.22487  0.55508  Biso   1.000  C
  C762     1.0000 0.60308  0.22288  0.47210  Biso   1.000  C
  C763     1.0000 0.64944  0.21174  0.45936  Biso   1.000  C
  C764     1.0000 0.67899  0.20965  0.41668  Biso   1.000  C
  C765     1.0000 0.66387  0.22099  0.38125  Biso   1.000  C
  C766     1.0000 0.61910  0.23015  0.39578  Biso   1.000  C
  C767     1.0000 0.58716  0.23224  0.43906  Biso   1.000  C
  C768     1.0000 0.69969  0.21980  0.33588  Biso   1.000  C
  N1       1.0000 0.25722  0.89056  0.96307  Biso   1.000  N
  N2       1.0000 0.25782  0.81793  0.98794  Biso   1.000  N
  N3       1.0000 0.90799  0.23980  0.88088  Biso   1.000  N
  N4       1.0000 0.83535  0.24039  0.92804  Biso   1.000  N
  N5       1.0000 0.95913  0.85952  0.26116  Biso   1.000  N
  N6       1.0000 0.98400  0.90668  0.26176  Biso   1.000  N
  N7       1.0000 0.87694  0.94170  0.91192  Biso   1.000  N
  N8       1.0000 0.92411  0.96658  0.83929  Biso   1.000  N
  N9       1.0000 0.25722  0.94170  0.88088  Biso   1.000  N
  N10      1.0000 0.25782  0.96658  0.92804  Biso   1.000  N
  N11      1.0000 0.90799  0.85952  0.96307  Biso   1.000  N
  N12      1.0000 0.83535  0.90668  0.98794  Biso   1.000  N
  N13      1.0000 0.95913  0.23980  0.91192  Biso   1.000  N
  N14      1.0000 0.98400  0.24039  0.83929  Biso   1.000  N
  N15      1.0000 0.87694  0.89056  0.26116  Biso   1.000  N
  N16      1.0000 0.92411  0.81793  0.26176  Biso   1.000  N
  N17      1.0000 0.25722  0.85952  0.91192  Biso   1.000  N
  N18      1.0000 0.25782  0.90668  0.83929  Biso   1.000  N
  N19      1.0000 0.90799  0.94170  0.26116  Biso   1.000  N
  N20      1.0000 0.83535  0.96658  0.26176  Biso   1.000  N
  N21      1.0000 0.95913  0.89056  0.88088  Biso   1.000  N
  N22      1.0000 0.98400  0.81793  0.92804  Biso   1.000  N
  N23      1.0000 0.87694  0.23980  0.96307  Biso   1.000  N
  N24      1.0000 0.92411  0.24039  0.98794  Biso   1.000  N
  N25      1.0000 0.24091  0.57272  0.54294  Biso   1.000  N
  N26      1.0000 0.24031  0.64535  0.51806  Biso   1.000  N
  N27      1.0000 0.59014  0.22348  0.62512  Biso   1.000  N
  N28      1.0000 0.66277  0.22288  0.57796  Biso   1.000  N
  N29      1.0000 0.53900  0.60376  0.24484  Biso   1.000  N
  N30      1.0000 0.51413  0.55660  0.24425  Biso   1.000  N
  N31      1.0000 0.62118  0.52157  0.59408  Biso   1.000  N
  N32      1.0000 0.57402  0.49670  0.66671  Biso   1.000  N
  N33      1.0000 0.24091  0.52157  0.62512  Biso   1.000  N
  N34      1.0000 0.24031  0.49670  0.57796  Biso   1.000  N
  N35      1.0000 0.59014  0.60376  0.54294  Biso   1.000  N
  N36      1.0000 0.66277  0.55660  0.51806  Biso   1.000  N
  N37      1.0000 0.53900  0.22348  0.59408  Biso   1.000  N
  N38      1.0000 0.51413  0.22288  0.66671  Biso   1.000  N
  N39      1.0000 0.62118  0.57272  0.24484  Biso   1.000  N
  N40      1.0000 0.57402  0.64535  0.24425  Biso   1.000  N
  N41      1.0000 0.24091  0.60376  0.59408  Biso   1.000  N
  N42      1.0000 0.24031  0.55660  0.66671  Biso   1.000  N
  N43      1.0000 0.59014  0.52157  0.24484  Biso   1.000  N
  N44      1.0000 0.66277  0.49670  0.24425  Biso   1.000  N
  N45      1.0000 0.53900  0.57272  0.62512  Biso   1.000  N
  N46      1.0000 0.51413  0.64535  0.57796  Biso   1.000  N
  N47      1.0000 0.62118  0.22348  0.54294  Biso   1.000  N
  N48      1.0000 0.57402  0.22288  0.51806  Biso   1.000  N
  O97      1.0000 0.27250  0.77953  0.17761  Biso   1.000  O
  O98      1.0000 0.24492  0.71355  0.20245  Biso   1.000  O
  O99      1.0000 0.79696  0.25507  0.76209  Biso   1.000  O
  O100     1.0000 0.73098  0.22749  0.82579  Biso   1.000  O
  O101     1.0000 0.17367  0.74073  0.27643  Biso   1.000  O
  O102     1.0000 0.19851  0.80443  0.24885  Biso   1.000  O
  O103     1.0000 0.75815  0.15625  0.80090  Biso   1.000  O
  O104     1.0000 0.82185  0.18108  0.73492  Biso   1.000  O
  O105     1.0000 0.27250  0.15625  0.76209  Biso   1.000  O
  O106     1.0000 0.24492  0.18108  0.82579  Biso   1.000  O
  O107     1.0000 0.79696  0.74073  0.17761  Biso   1.000  O
  O108     1.0000 0.73098  0.80443  0.20245  Biso   1.000  O
  O109     1.0000 0.17367  0.25507  0.80090  Biso   1.000  O
  O110     1.0000 0.19851  0.22749  0.73492  Biso   1.000  O
  O111     1.0000 0.75815  0.77953  0.27643  Biso   1.000  O
  O112     1.0000 0.82185  0.71355  0.24885  Biso   1.000  O
  O113     1.0000 0.27250  0.74073  0.80090  Biso   1.000  O
  O114     1.0000 0.24492  0.80443  0.73492  Biso   1.000  O
  O115     1.0000 0.79696  0.15625  0.27643  Biso   1.000  O
  O116     1.0000 0.73098  0.18108  0.24885  Biso   1.000  O
  O117     1.0000 0.17367  0.77953  0.76209  Biso   1.000  O
  O118     1.0000 0.19851  0.71355  0.82579  Biso   1.000  O
  O119     1.0000 0.75815  0.25507  0.17761  Biso   1.000  O
  O120     1.0000 0.82185  0.22749  0.20245  Biso   1.000  O
  O121     1.0000 0.22563  0.68375  0.32839  Biso   1.000  O
  O122     1.0000 0.25321  0.74972  0.30356  Biso   1.000  O
  O123     1.0000 0.70117  0.20821  0.74391  Biso   1.000  O
  O124     1.0000 0.76715  0.23579  0.68021  Biso   1.000  O
  O125     1.0000 0.32445  0.72255  0.22957  Biso   1.000  O
  O126     1.0000 0.29962  0.65885  0.25715  Biso   1.000  O
  O127     1.0000 0.73997  0.30703  0.70511  Biso   1.000  O
  O128     1.0000 0.67628  0.28219  0.77109  Biso   1.000  O
  O129     1.0000 0.22563  0.30703  0.74391  Biso   1.000  O
  O130     1.0000 0.25321  0.28219  0.68021  Biso   1.000  O
  O131     1.0000 0.70117  0.72255  0.32839  Biso   1.000  O
  O132     1.0000 0.76715  0.65885  0.30356  Biso   1.000  O
  O133     1.0000 0.32445  0.20821  0.70511  Biso   1.000  O
  O134     1.0000 0.29962  0.23579  0.77109  Biso   1.000  O
  O135     1.0000 0.73997  0.68375  0.22957  Biso   1.000  O
  O136     1.0000 0.67628  0.74972  0.25715  Biso   1.000  O
  O137     1.0000 0.22563  0.72255  0.70511  Biso   1.000  O
  O138     1.0000 0.25321  0.65885  0.77109  Biso   1.000  O
  O139     1.0000 0.70117  0.30703  0.22957  Biso   1.000  O
  O140     1.0000 0.76715  0.28219  0.25715  Biso   1.000  O
  O141     1.0000 0.32445  0.68375  0.74391  Biso   1.000  O
  O142     1.0000 0.29962  0.74972  0.68021  Biso   1.000  O
  O143     1.0000 0.73997  0.20821  0.32839  Biso   1.000  O
  O144     1.0000 0.67628  0.23579  0.30356  Biso   1.000  O
