data_image0
_cell_length_a       30.9492
_cell_length_b       30.9492
_cell_length_c       45.9136
_cell_angle_alpha    70.3035
_cell_angle_beta     70.3035
_cell_angle_gamma    89.9999

_symmetry_space_group_name_H-M    "P 1"
_symmetry_int_tables_number       1

loop_
  _symmetry_equiv_pos_as_xyz
  'x, y, z'

loop_
  _atom_site_label
  _atom_site_occupancy
  _atom_site_fract_x
  _atom_site_fract_y
  _atom_site_fract_z
  _atom_site_thermal_displace_type
  _atom_site_B_iso_or_equiv
  _atom_site_type_symbol
  Cu1      1.0000 0.63888  0.08158  0.78024  Biso   1.000  Cu
  Cu2      1.0000 0.58088  0.13818  0.78024  Biso   1.000  Cu
  Cu3      1.0000 0.83158  0.83088  0.28024  Biso   1.000  Cu
  Cu4      1.0000 0.88818  0.88888  0.28024  Biso   1.000  Cu
  Cu5      1.0000 0.16912  0.16842  0.71976  Biso   1.000  Cu
  Cu6      1.0000 0.11112  0.11182  0.71976  Biso   1.000  Cu
  Cu7      1.0000 0.86182  0.41912  0.21976  Biso   1.000  Cu
  Cu8      1.0000 0.91842  0.36112  0.21976  Biso   1.000  Cu
  H1       1.0000 0.71320  0.12650  0.88800  Biso   1.000  H
  H2       1.0000 0.69130  0.10330  0.85140  Biso   1.000  H
  H3       1.0000 0.59680  0.19230  0.85240  Biso   1.000  H
  H4       1.0000 0.61880  0.21570  0.88880  Biso   1.000  H
  H5       1.0000 0.92920  0.15110  0.83540  Biso   1.000  H
  H6       1.0000 0.98190  0.13360  0.79260  Biso   1.000  H
  H7       1.0000 0.08500  0.20520  0.79840  Biso   1.000  H
  H8       1.0000 0.03230  0.22280  0.84120  Biso   1.000  H
  H9       1.0000 0.67250  0.20070  0.97380  Biso   1.000  H
  H10      1.0000 0.80780  0.18440  0.89880  Biso   1.000  H
  H11      1.0000 0.90960  0.21870  0.92580  Biso   1.000  H
  H12      1.0000 0.85470  0.23240  0.97040  Biso   1.000  H
  H13      1.0000 0.74250  0.16300  0.91020  Biso   1.000  H
  H14      1.0000 0.66250  0.20780  0.92580  Biso   1.000  H
  H15      1.0000 0.88730  0.17570  0.86640  Biso   1.000  H
  H16      1.0000 0.95600  0.21840  0.88040  Biso   1.000  H
  H17      1.0000 0.39880  0.98550  0.88800  Biso   1.000  H
  H18      1.0000 0.45730  0.04530  0.85140  Biso   1.000  H
  H19      1.0000 0.55080  0.95530  0.85240  Biso   1.000  H
  H20      1.0000 0.49240  0.89550  0.88880  Biso   1.000  H
  H21      1.0000 0.23540  0.01350  0.83540  Biso   1.000  H
  H22      1.0000 0.22550  0.07380  0.79260  Biso   1.000  H
  H23      1.0000 0.11660  0.99640  0.79840  Biso   1.000  H
  H24      1.0000 0.12650  0.93600  0.84120  Biso   1.000  H
  H25      1.0000 0.35370  0.82550  0.97380  Biso   1.000  H
  H26      1.0000 0.29340  0.91680  0.89880  Biso   1.000  H
  H27      1.0000 0.16460  0.85550  0.92580  Biso   1.000  H
  H28      1.0000 0.17490  0.79720  0.97040  Biso   1.000  H
  H29      1.0000 0.34730  0.92680  0.91020  Biso   1.000  H
  H30      1.0000 0.41170  0.86640  0.92580  Biso   1.000  H
  H31      1.0000 0.24630  0.95790  0.86640  Biso   1.000  H
  H32      1.0000 0.16360  0.90120  0.88040  Biso   1.000  H
  H33      1.0000 0.87650  0.64880  0.38800  Biso   1.000  H
  H34      1.0000 0.85330  0.70730  0.35140  Biso   1.000  H
  H35      1.0000 0.94230  0.80080  0.35240  Biso   1.000  H
  H36      1.0000 0.96570  0.74240  0.38880  Biso   1.000  H
  H37      1.0000 0.90110  0.48540  0.33540  Biso   1.000  H
  H38      1.0000 0.88360  0.47550  0.29260  Biso   1.000  H
  H39      1.0000 0.95520  0.36660  0.29840  Biso   1.000  H
  H40      1.0000 0.97280  0.37650  0.34120  Biso   1.000  H
  H41      1.0000 0.95070  0.60370  0.47380  Biso   1.000  H
  H42      1.0000 0.93440  0.54340  0.39880  Biso   1.000  H
  H43      1.0000 0.96870  0.41460  0.42580  Biso   1.000  H
  H44      1.0000 0.98240  0.42490  0.47040  Biso   1.000  H
  H45      1.0000 0.91300  0.59730  0.41020  Biso   1.000  H
  H46      1.0000 0.95780  0.66170  0.42580  Biso   1.000  H
  H47      1.0000 0.92570  0.49630  0.36640  Biso   1.000  H
  H48      1.0000 0.96840  0.41360  0.38040  Biso   1.000  H
  H49      1.0000 0.73550  0.96320  0.38800  Biso   1.000  H
  H50      1.0000 0.79530  0.94130  0.35140  Biso   1.000  H
  H51      1.0000 0.70530  0.84680  0.35240  Biso   1.000  H
  H52      1.0000 0.64550  0.86880  0.38880  Biso   1.000  H
  H53      1.0000 0.76350  0.17920  0.33540  Biso   1.000  H
  H54      1.0000 0.82380  0.23190  0.29260  Biso   1.000  H
  H55      1.0000 0.74640  0.33500  0.29840  Biso   1.000  H
  H56      1.0000 0.68600  0.28230  0.34120  Biso   1.000  H
  H57      1.0000 0.57550  0.92250  0.47380  Biso   1.000  H
  H58      1.0000 0.66680  0.05780  0.39880  Biso   1.000  H
  H59      1.0000 0.60550  0.15960  0.42580  Biso   1.000  H
  H60      1.0000 0.54720  0.10470  0.47040  Biso   1.000  H
  H61      1.0000 0.67680  0.99250  0.41020  Biso   1.000  H
  H62      1.0000 0.61640  0.91250  0.42580  Biso   1.000  H
  H63      1.0000 0.70790  0.13730  0.36640  Biso   1.000  H
  H64      1.0000 0.65120  0.20600  0.38040  Biso   1.000  H
  H65      1.0000 0.35120  0.12350  0.61200  Biso   1.000  H
  H66      1.0000 0.29270  0.14670  0.64860  Biso   1.000  H
  H67      1.0000 0.19920  0.05770  0.64760  Biso   1.000  H
  H68      1.0000 0.25760  0.03430  0.61120  Biso   1.000  H
  H69      1.0000 0.51460  0.09890  0.66460  Biso   1.000  H
  H70      1.0000 0.52450  0.11640  0.70740  Biso   1.000  H
  H71      1.0000 0.63340  0.04480  0.70160  Biso   1.000  H
  H72      1.0000 0.62350  0.02720  0.65880  Biso   1.000  H
  H73      1.0000 0.39630  0.04930  0.52620  Biso   1.000  H
  H74      1.0000 0.45660  0.06560  0.60120  Biso   1.000  H
  H75      1.0000 0.58540  0.03130  0.57420  Biso   1.000  H
  H76      1.0000 0.57510  0.01760  0.52960  Biso   1.000  H
  H77      1.0000 0.40270  0.08700  0.58980  Biso   1.000  H
  H78      1.0000 0.33830  0.04220  0.57420  Biso   1.000  H
  H79      1.0000 0.50370  0.07430  0.63360  Biso   1.000  H
  H80      1.0000 0.58640  0.03160  0.61960  Biso   1.000  H
  H81      1.0000 0.03680  0.26450  0.61200  Biso   1.000  H
  H82      1.0000 0.05870  0.20470  0.64860  Biso   1.000  H
  H83      1.0000 0.15320  0.29470  0.64760  Biso   1.000  H
  H84      1.0000 0.13120  0.35450  0.61120  Biso   1.000  H
  H85      1.0000 0.82080  0.23650  0.66460  Biso   1.000  H
  H86      1.0000 0.76810  0.17620  0.70740  Biso   1.000  H
  H87      1.0000 0.66500  0.25360  0.70160  Biso   1.000  H
  H88      1.0000 0.71770  0.31400  0.65880  Biso   1.000  H
  H89      1.0000 0.07750  0.42450  0.52620  Biso   1.000  H
  H90      1.0000 0.94220  0.33320  0.60120  Biso   1.000  H
  H91      1.0000 0.84040  0.39450  0.57420  Biso   1.000  H
  H92      1.0000 0.89530  0.45280  0.52960  Biso   1.000  H
  H93      1.0000 0.00750  0.32320  0.58980  Biso   1.000  H
  H94      1.0000 0.08750  0.38360  0.57420  Biso   1.000  H
  H95      1.0000 0.86270  0.29210  0.63360  Biso   1.000  H
  H96      1.0000 0.79400  0.34880  0.61960  Biso   1.000  H
  H97      1.0000 0.01450  0.60120  0.11200  Biso   1.000  H
  H98      1.0000 0.95470  0.54270  0.14860  Biso   1.000  H
  H99      1.0000 0.04470  0.44920  0.14760  Biso   1.000  H
  H100     1.0000 0.10450  0.50760  0.11120  Biso   1.000  H
  H101     1.0000 0.98650  0.76460  0.16460  Biso   1.000  H
  H102     1.0000 0.92620  0.77450  0.20740  Biso   1.000  H
  H103     1.0000 0.00360  0.88340  0.20160  Biso   1.000  H
  H104     1.0000 0.06400  0.87350  0.15880  Biso   1.000  H
  H105     1.0000 0.17450  0.64630  0.02620  Biso   1.000  H
  H106     1.0000 0.08320  0.70660  0.10120  Biso   1.000  H
  H107     1.0000 0.14450  0.83540  0.07420  Biso   1.000  H
  H108     1.0000 0.20280  0.82510  0.02960  Biso   1.000  H
  H109     1.0000 0.07320  0.65270  0.08980  Biso   1.000  H
  H110     1.0000 0.13360  0.58830  0.07420  Biso   1.000  H
  H111     1.0000 0.04210  0.75370  0.13360  Biso   1.000  H
  H112     1.0000 0.09880  0.83640  0.11960  Biso   1.000  H
  H113     1.0000 0.87350  0.28680  0.11200  Biso   1.000  H
  H114     1.0000 0.89670  0.30870  0.14860  Biso   1.000  H
  H115     1.0000 0.80770  0.40320  0.14760  Biso   1.000  H
  H116     1.0000 0.78430  0.38120  0.11120  Biso   1.000  H
  H117     1.0000 0.84890  0.07080  0.16460  Biso   1.000  H
  H118     1.0000 0.86640  0.01810  0.20740  Biso   1.000  H
  H119     1.0000 0.79480  0.91500  0.20160  Biso   1.000  H
  H120     1.0000 0.77720  0.96770  0.15880  Biso   1.000  H
  H121     1.0000 0.79930  0.32750  0.02620  Biso   1.000  H
  H122     1.0000 0.81560  0.19220  0.10120  Biso   1.000  H
  H123     1.0000 0.78130  0.09040  0.07420  Biso   1.000  H
  H124     1.0000 0.76760  0.14530  0.02960  Biso   1.000  H
  H125     1.0000 0.83700  0.25750  0.08980  Biso   1.000  H
  H126     1.0000 0.79220  0.33750  0.07420  Biso   1.000  H
  H127     1.0000 0.82430  0.11270  0.13360  Biso   1.000  H
  H128     1.0000 0.78160  0.04400  0.11960  Biso   1.000  H
  C1       1.0000 0.66816  0.17346  0.89208  Biso   1.000  C
  C2       1.0000 0.68990  0.13980  0.88080  Biso   1.000  C
  C3       1.0000 0.67670  0.12570  0.85900  Biso   1.000  C
  C4       1.0000 0.64186  0.14546  0.84828  Biso   1.000  C
  C5       1.0000 0.62020  0.17920  0.85940  Biso   1.000  C
  C6       1.0000 0.63330  0.19310  0.88140  Biso   1.000  C
  C7       1.0000 0.64190  0.22820  0.01840  Biso   1.000  C
  C8       1.0000 0.64470  0.26360  0.98460  Biso   1.000  C
  C9       1.0000 0.97553  0.18873  0.84254  Biso   1.000  C
  C10      1.0000 0.96040  0.16200  0.82800  Biso   1.000  C
  C11      1.0000 0.99200  0.15140  0.80240  Biso   1.000  C
  C12      1.0000 0.03868  0.16768  0.79124  Biso   1.000  C
  C13      1.0000 0.05380  0.19440  0.80580  Biso   1.000  C
  C14      1.0000 0.02220  0.20490  0.83140  Biso   1.000  C
  C15      1.0000 0.62890  0.13020  0.82560  Biso   1.000  C
  C16      1.0000 0.07430  0.15670  0.76580  Biso   1.000  C
  C17      1.0000 0.76440  0.22520  0.98720  Biso   1.000  C
  C18      1.0000 0.71766  0.21946  0.99188  Biso   1.000  C
  C19      1.0000 0.70380  0.20460  0.97060  Biso   1.000  C
  C20      1.0000 0.73661  0.19551  0.94478  Biso   1.000  C
  C21      1.0000 0.78331  0.20121  0.94018  Biso   1.000  C
  C22      1.0000 0.79720  0.21610  0.96140  Biso   1.000  C
  C23      1.0000 0.81760  0.19370  0.91300  Biso   1.000  C
  C24      1.0000 0.86530  0.19930  0.90700  Biso   1.000  C
  C25      1.0000 0.87840  0.21430  0.92900  Biso   1.000  C
  C26      1.0000 0.84510  0.22270  0.95620  Biso   1.000  C
  C27      1.0000 0.72310  0.17990  0.92120  Biso   1.000  C
  C28      1.0000 0.68170  0.19030  0.91520  Biso   1.000  C
  C29      1.0000 0.89780  0.18970  0.87820  Biso   1.000  C
  C30      1.0000 0.94470  0.20260  0.87000  Biso   1.000  C
  C31      1.0000 0.43976  0.93446  0.89208  Biso   1.000  C
  C32      1.0000 0.42930  0.97940  0.88080  Biso   1.000  C
  C33      1.0000 0.46430  0.01530  0.85900  Biso   1.000  C
  C34      1.0000 0.50986  0.00626  0.84828  Biso   1.000  C
  C35      1.0000 0.52040  0.96140  0.85940  Biso   1.000  C
  C36      1.0000 0.48530  0.92550  0.88140  Biso   1.000  C
  C37      1.0000 0.33970  0.75340  0.01840  Biso   1.000  C
  C38      1.0000 0.37070  0.75180  0.98460  Biso   1.000  C
  C39      1.0000 0.18193  0.96873  0.84254  Biso   1.000  C
  C40      1.0000 0.21160  0.01000  0.82800  Biso   1.000  C
  C41      1.0000 0.20560  0.04620  0.80240  Biso   1.000  C
  C42      1.0000 0.17008  0.04108  0.79124  Biso   1.000  C
  C43      1.0000 0.14040  0.99980  0.80580  Biso   1.000  C
  C44      1.0000 0.14640  0.96370  0.83140  Biso   1.000  C
  C45      1.0000 0.54550  0.04420  0.82560  Biso   1.000  C
  C46      1.0000 0.15990  0.07750  0.76580  Biso   1.000  C
  C47      1.0000 0.24840  0.78760  0.98720  Biso   1.000  C
  C48      1.0000 0.29046  0.78866  0.99188  Biso   1.000  C
  C49      1.0000 0.32560  0.82480  0.97060  Biso   1.000  C
  C50      1.0000 0.31861  0.85971  0.94478  Biso   1.000  C
  C51      1.0000 0.27651  0.85861  0.94018  Biso   1.000  C
  C52      1.0000 0.24140  0.82250  0.96140  Biso   1.000  C
  C53      1.0000 0.26940  0.89330  0.91300  Biso   1.000  C
  C54      1.0000 0.22770  0.89370  0.90700  Biso   1.000  C
  C55      1.0000 0.19260  0.85670  0.92900  Biso   1.000  C
  C56      1.0000 0.19870  0.82110  0.95620  Biso   1.000  C
  C57      1.0000 0.35570  0.89890  0.92120  Biso   1.000  C
  C58      1.0000 0.40310  0.89450  0.91520  Biso   1.000  C
  C59      1.0000 0.22400  0.93210  0.87820  Biso   1.000  C
  C60      1.0000 0.18530  0.92740  0.87000  Biso   1.000  C
  C61      1.0000 0.92346  0.68976  0.39208  Biso   1.000  C
  C62      1.0000 0.88980  0.67930  0.38080  Biso   1.000  C
  C63      1.0000 0.87570  0.71430  0.35900  Biso   1.000  C
  C64      1.0000 0.89546  0.75986  0.34828  Biso   1.000  C
  C65      1.0000 0.92920  0.77040  0.35940  Biso   1.000  C
  C66      1.0000 0.94310  0.73530  0.38140  Biso   1.000  C
  C67      1.0000 0.97820  0.58970  0.51840  Biso   1.000  C
  C68      1.0000 0.01360  0.62070  0.48460  Biso   1.000  C
  C69      1.0000 0.93873  0.43193  0.34254  Biso   1.000  C
  C70      1.0000 0.91200  0.46160  0.32800  Biso   1.000  C
  C71      1.0000 0.90140  0.45560  0.30240  Biso   1.000  C
  C72      1.0000 0.91768  0.42008  0.29124  Biso   1.000  C
  C73      1.0000 0.94440  0.39040  0.30580  Biso   1.000  C
  C74      1.0000 0.95490  0.39640  0.33140  Biso   1.000  C
  C75      1.0000 0.88020  0.79550  0.32560  Biso   1.000  C
  C76      1.0000 0.90670  0.40990  0.26580  Biso   1.000  C
  C77      1.0000 0.97520  0.49840  0.48720  Biso   1.000  C
  C78      1.0000 0.96946  0.54046  0.49188  Biso   1.000  C
  C79      1.0000 0.95460  0.57560  0.47060  Biso   1.000  C
  C80      1.0000 0.94551  0.56861  0.44478  Biso   1.000  C
  C81      1.0000 0.95121  0.52651  0.44018  Biso   1.000  C
  C82      1.0000 0.96610  0.49140  0.46140  Biso   1.000  C
  C83      1.0000 0.94370  0.51940  0.41300  Biso   1.000  C
  C84      1.0000 0.94930  0.47770  0.40700  Biso   1.000  C
  C85      1.0000 0.96430  0.44260  0.42900  Biso   1.000  C
  C86      1.0000 0.97270  0.44870  0.45620  Biso   1.000  C
  C87      1.0000 0.92990  0.60570  0.42120  Biso   1.000  C
  C88      1.0000 0.94030  0.65310  0.41520  Biso   1.000  C
  C89      1.0000 0.93970  0.47400  0.37820  Biso   1.000  C
  C90      1.0000 0.95260  0.43530  0.37000  Biso   1.000  C
  C91      1.0000 0.68446  0.91816  0.39208  Biso   1.000  C
  C92      1.0000 0.72940  0.93990  0.38080  Biso   1.000  C
  C93      1.0000 0.76530  0.92670  0.35900  Biso   1.000  C
  C94      1.0000 0.75626  0.89186  0.34828  Biso   1.000  C
  C95      1.0000 0.71140  0.87020  0.35940  Biso   1.000  C
  C96      1.0000 0.67550  0.88330  0.38140  Biso   1.000  C
  C97      1.0000 0.50340  0.89190  0.51840  Biso   1.000  C
  C98      1.0000 0.50180  0.89470  0.48460  Biso   1.000  C
  C99      1.0000 0.71873  0.22553  0.34254  Biso   1.000  C
  C100     1.0000 0.76000  0.21040  0.32800  Biso   1.000  C
  C101     1.0000 0.79620  0.24200  0.30240  Biso   1.000  C
  C102     1.0000 0.79108  0.28868  0.29124  Biso   1.000  C
  C103     1.0000 0.74980  0.30380  0.30580  Biso   1.000  C
  C104     1.0000 0.71370  0.27220  0.33140  Biso   1.000  C
  C105     1.0000 0.79420  0.87890  0.32560  Biso   1.000  C
  C106     1.0000 0.82750  0.32430  0.26580  Biso   1.000  C
  C107     1.0000 0.53760  0.01440  0.48720  Biso   1.000  C
  C108     1.0000 0.53866  0.96766  0.49188  Biso   1.000  C
  C109     1.0000 0.57480  0.95380  0.47060  Biso   1.000  C
  C110     1.0000 0.60971  0.98661  0.44478  Biso   1.000  C
  C111     1.0000 0.60861  0.03331  0.44018  Biso   1.000  C
  C112     1.0000 0.57250  0.04720  0.46140  Biso   1.000  C
  C113     1.0000 0.64330  0.06760  0.41300  Biso   1.000  C
  C114     1.0000 0.64370  0.11530  0.40700  Biso   1.000  C
  C115     1.0000 0.60670  0.12840  0.42900  Biso   1.000  C
  C116     1.0000 0.57110  0.09510  0.45620  Biso   1.000  C
  C117     1.0000 0.64890  0.97310  0.42120  Biso   1.000  C
  C118     1.0000 0.64450  0.93170  0.41520  Biso   1.000  C
  C119     1.0000 0.68210  0.14780  0.37820  Biso   1.000  C
  C120     1.0000 0.67740  0.19470  0.37000  Biso   1.000  C
  C121     1.0000 0.31024  0.07654  0.60792  Biso   1.000  C
  C122     1.0000 0.32070  0.11020  0.61920  Biso   1.000  C
  C123     1.0000 0.28570  0.12430  0.64100  Biso   1.000  C
  C124     1.0000 0.24014  0.10454  0.65172  Biso   1.000  C
  C125     1.0000 0.22960  0.07080  0.64060  Biso   1.000  C
  C126     1.0000 0.26470  0.05690  0.61860  Biso   1.000  C
  C127     1.0000 0.41030  0.02180  0.48160  Biso   1.000  C
  C128     1.0000 0.37930  0.98640  0.51540  Biso   1.000  C
  C129     1.0000 0.56807  0.06127  0.65746  Biso   1.000  C
  C130     1.0000 0.53840  0.08800  0.67200  Biso   1.000  C
  C131     1.0000 0.54440  0.09860  0.69760  Biso   1.000  C
  C132     1.0000 0.57992  0.08232  0.70876  Biso   1.000  C
  C133     1.0000 0.60960  0.05560  0.69420  Biso   1.000  C
  C134     1.0000 0.60360  0.04510  0.66860  Biso   1.000  C
  C135     1.0000 0.20450  0.11980  0.67440  Biso   1.000  C
  C136     1.0000 0.59010  0.09330  0.73420  Biso   1.000  C
  C137     1.0000 0.50160  0.02480  0.51280  Biso   1.000  C
  C138     1.0000 0.45954  0.03054  0.50812  Biso   1.000  C
  C139     1.0000 0.42440  0.04540  0.52940  Biso   1.000  C
  C140     1.0000 0.43139  0.05449  0.55522  Biso   1.000  C
  C141     1.0000 0.47349  0.04879  0.55982  Biso   1.000  C
  C142     1.0000 0.50860  0.03390  0.53860  Biso   1.000  C
  C143     1.0000 0.48060  0.05630  0.58700  Biso   1.000  C
  C144     1.0000 0.52230  0.05070  0.59300  Biso   1.000  C
  C145     1.0000 0.55740  0.03570  0.57100  Biso   1.000  C
  C146     1.0000 0.55130  0.02730  0.54380  Biso   1.000  C
  C147     1.0000 0.39430  0.07010  0.57880  Biso   1.000  C
  C148     1.0000 0.34690  0.05970  0.58480  Biso   1.000  C
  C149     1.0000 0.52600  0.06030  0.62180  Biso   1.000  C
  C150     1.0000 0.56470  0.04740  0.63000  Biso   1.000  C
  C151     1.0000 0.08184  0.31554  0.60792  Biso   1.000  C
  C152     1.0000 0.06010  0.27060  0.61920  Biso   1.000  C
  C153     1.0000 0.07330  0.23470  0.64100  Biso   1.000  C
  C154     1.0000 0.10814  0.24374  0.65172  Biso   1.000  C
  C155     1.0000 0.12980  0.28860  0.64060  Biso   1.000  C
  C156     1.0000 0.11670  0.32450  0.61860  Biso   1.000  C
  C157     1.0000 0.10810  0.49660  0.48160  Biso   1.000  C
  C158     1.0000 0.10530  0.49820  0.51540  Biso   1.000  C
  C159     1.0000 0.77447  0.28127  0.65746  Biso   1.000  C
  C160     1.0000 0.78960  0.24000  0.67200  Biso   1.000  C
  C161     1.0000 0.75800  0.20380  0.69760  Biso   1.000  C
  C162     1.0000 0.71132  0.20892  0.70876  Biso   1.000  C
  C163     1.0000 0.69620  0.25020  0.69420  Biso   1.000  C
  C164     1.0000 0.72780  0.28630  0.66860  Biso   1.000  C
  C165     1.0000 0.12110  0.20580  0.67440  Biso   1.000  C
  C166     1.0000 0.67570  0.17250  0.73420  Biso   1.000  C
  C167     1.0000 0.98560  0.46240  0.51280  Biso   1.000  C
  C168     1.0000 0.03234  0.46134  0.50812  Biso   1.000  C
  C169     1.0000 0.04620  0.42520  0.52940  Biso   1.000  C
  C170     1.0000 0.01339  0.39029  0.55522  Biso   1.000  C
  C171     1.0000 0.96669  0.39139  0.55982  Biso   1.000  C
  C172     1.0000 0.95280  0.42750  0.53860  Biso   1.000  C
  C173     1.0000 0.93240  0.35670  0.58700  Biso   1.000  C
  C174     1.0000 0.88470  0.35630  0.59300  Biso   1.000  C
  C175     1.0000 0.87160  0.39330  0.57100  Biso   1.000  C
  C176     1.0000 0.90490  0.42890  0.54380  Biso   1.000  C
  C177     1.0000 0.02690  0.35110  0.57880  Biso   1.000  C
  C178     1.0000 0.06830  0.35550  0.58480  Biso   1.000  C
  C179     1.0000 0.85220  0.31790  0.62180  Biso   1.000  C
  C180     1.0000 0.80530  0.32260  0.63000  Biso   1.000  C
  C181     1.0000 0.06554  0.56024  0.10792  Biso   1.000  C
  C182     1.0000 0.02060  0.57070  0.11920  Biso   1.000  C
  C183     1.0000 0.98470  0.53570  0.14100  Biso   1.000  C
  C184     1.0000 0.99374  0.49014  0.15172  Biso   1.000  C
  C185     1.0000 0.03860  0.47960  0.14060  Biso   1.000  C
  C186     1.0000 0.07450  0.51470  0.11860  Biso   1.000  C
  C187     1.0000 0.24660  0.66030  0.98160  Biso   1.000  C
  C188     1.0000 0.24820  0.62930  0.01540  Biso   1.000  C
  C189     1.0000 0.03127  0.81807  0.15746  Biso   1.000  C
  C190     1.0000 0.99000  0.78840  0.17200  Biso   1.000  C
  C191     1.0000 0.95380  0.79440  0.19760  Biso   1.000  C
  C192     1.0000 0.95892  0.82992  0.20876  Biso   1.000  C
  C193     1.0000 0.00020  0.85960  0.19420  Biso   1.000  C
  C194     1.0000 0.03630  0.85360  0.16860  Biso   1.000  C
  C195     1.0000 0.95580  0.45450  0.17440  Biso   1.000  C
  C196     1.0000 0.92250  0.84010  0.23420  Biso   1.000  C
  C197     1.0000 0.21240  0.75160  0.01280  Biso   1.000  C
  C198     1.0000 0.21134  0.70954  0.00812  Biso   1.000  C
  C199     1.0000 0.17520  0.67440  0.02940  Biso   1.000  C
  C200     1.0000 0.14029  0.68139  0.05522  Biso   1.000  C
  C201     1.0000 0.14139  0.72349  0.05982  Biso   1.000  C
  C202     1.0000 0.17750  0.75860  0.03860  Biso   1.000  C
  C203     1.0000 0.10670  0.73060  0.08700  Biso   1.000  C
  C204     1.0000 0.10630  0.77230  0.09300  Biso   1.000  C
  C205     1.0000 0.14330  0.80740  0.07100  Biso   1.000  C
  C206     1.0000 0.17890  0.80130  0.04380  Biso   1.000  C
  C207     1.0000 0.10110  0.64430  0.07880  Biso   1.000  C
  C208     1.0000 0.10550  0.59690  0.08480  Biso   1.000  C
  C209     1.0000 0.06790  0.77600  0.12180  Biso   1.000  C
  C210     1.0000 0.07260  0.81470  0.13000  Biso   1.000  C
  C211     1.0000 0.82654  0.33184  0.10792  Biso   1.000  C
  C212     1.0000 0.86020  0.31010  0.11920  Biso   1.000  C
  C213     1.0000 0.87430  0.32330  0.14100  Biso   1.000  C
  C214     1.0000 0.85454  0.35814  0.15172  Biso   1.000  C
  C215     1.0000 0.82080  0.37980  0.14060  Biso   1.000  C
  C216     1.0000 0.80690  0.36670  0.11860  Biso   1.000  C
  C217     1.0000 0.77180  0.35810  0.98160  Biso   1.000  C
  C218     1.0000 0.73640  0.35530  0.01540  Biso   1.000  C
  C219     1.0000 0.81127  0.02447  0.15746  Biso   1.000  C
  C220     1.0000 0.83800  0.03960  0.17200  Biso   1.000  C
  C221     1.0000 0.84860  0.00800  0.19760  Biso   1.000  C
  C222     1.0000 0.83232  0.96132  0.20876  Biso   1.000  C
  C223     1.0000 0.80560  0.94620  0.19420  Biso   1.000  C
  C224     1.0000 0.79510  0.97780  0.16860  Biso   1.000  C
  C225     1.0000 0.86980  0.37110  0.17440  Biso   1.000  C
  C226     1.0000 0.84330  0.92570  0.23420  Biso   1.000  C
  C227     1.0000 0.77480  0.23560  0.01280  Biso   1.000  C
  C228     1.0000 0.78054  0.28234  0.00812  Biso   1.000  C
  C229     1.0000 0.79540  0.29620  0.02940  Biso   1.000  C
  C230     1.0000 0.80449  0.26339  0.05522  Biso   1.000  C
  C231     1.0000 0.79879  0.21669  0.05982  Biso   1.000  C
  C232     1.0000 0.78390  0.20280  0.03860  Biso   1.000  C
  C233     1.0000 0.80630  0.18240  0.08700  Biso   1.000  C
  C234     1.0000 0.80070  0.13470  0.09300  Biso   1.000  C
  C235     1.0000 0.78570  0.12160  0.07100  Biso   1.000  C
  C236     1.0000 0.77730  0.15490  0.04380  Biso   1.000  C
  C237     1.0000 0.82010  0.27690  0.07880  Biso   1.000  C
  C238     1.0000 0.80970  0.31830  0.08480  Biso   1.000  C
  C239     1.0000 0.81030  0.10220  0.12180  Biso   1.000  C
  C240     1.0000 0.79740  0.05530  0.13000  Biso   1.000  C
  O1       1.0000 0.64800  0.09730  0.81660  Biso   1.000  O
  O2       1.0000 0.59830  0.14870  0.81380  Biso   1.000  O
  O3       1.0000 0.11710  0.17440  0.75700  Biso   1.000  O
  O4       1.0000 0.06600  0.13060  0.75120  Biso   1.000  O
  O5       1.0000 0.68790  0.22620  0.01820  Biso   1.000  O
  O6       1.0000 0.53540  0.08610  0.81660  Biso   1.000  O
  O7       1.0000 0.58790  0.03750  0.81380  Biso   1.000  O
  O8       1.0000 0.12590  0.06860  0.75700  Biso   1.000  O
  O9       1.0000 0.18280  0.11820  0.75120  Biso   1.000  O
  O10      1.0000 0.29390  0.75560  0.01820  Biso   1.000  O
  O11      1.0000 0.84730  0.78540  0.31660  Biso   1.000  O
  O12      1.0000 0.89870  0.83790  0.31380  Biso   1.000  O
  O13      1.0000 0.92440  0.37590  0.25700  Biso   1.000  O
  O14      1.0000 0.88060  0.43280  0.25120  Biso   1.000  O
  O15      1.0000 0.97620  0.54390  0.51820  Biso   1.000  O
  O16      1.0000 0.83610  0.89800  0.31660  Biso   1.000  O
  O17      1.0000 0.78750  0.84830  0.31380  Biso   1.000  O
  O18      1.0000 0.81860  0.36710  0.25700  Biso   1.000  O
  O19      1.0000 0.86820  0.31600  0.25120  Biso   1.000  O
  O20      1.0000 0.50560  0.93790  0.51820  Biso   1.000  O
  O21      1.0000 0.21460  0.15270  0.68340  Biso   1.000  O
  O22      1.0000 0.16210  0.10130  0.68620  Biso   1.000  O
  O23      1.0000 0.62410  0.07560  0.74300  Biso   1.000  O
  O24      1.0000 0.56720  0.11940  0.74880  Biso   1.000  O
  O25      1.0000 0.45610  0.02380  0.48180  Biso   1.000  O
  O26      1.0000 0.10200  0.16390  0.68340  Biso   1.000  O
  O27      1.0000 0.15170  0.21250  0.68620  Biso   1.000  O
  O28      1.0000 0.63290  0.18140  0.74300  Biso   1.000  O
  O29      1.0000 0.68400  0.13180  0.74880  Biso   1.000  O
  O30      1.0000 0.06210  0.49440  0.48180  Biso   1.000  O
  O31      1.0000 0.91390  0.46460  0.18340  Biso   1.000  O
  O32      1.0000 0.96250  0.41210  0.18620  Biso   1.000  O
  O33      1.0000 0.93140  0.87410  0.24300  Biso   1.000  O
  O34      1.0000 0.88180  0.81720  0.24880  Biso   1.000  O
  O35      1.0000 0.24440  0.70610  0.98180  Biso   1.000  O
  O36      1.0000 0.90270  0.35200  0.18340  Biso   1.000  O
  O37      1.0000 0.85130  0.40170  0.18620  Biso   1.000  O
  O38      1.0000 0.82560  0.88290  0.24300  Biso   1.000  O
  O39      1.0000 0.86940  0.93400  0.24880  Biso   1.000  O
  O40      1.0000 0.77380  0.31210  0.98180  Biso   1.000  O
  Cu9      1.0000 0.70919  0.77381  0.52028  Biso   1.000  Cu
  Cu10     1.0000 0.76568  0.71990  0.52028  Biso   1.000  Cu
  Cu11     1.0000 0.01710  0.52511  0.01485  Biso   1.000  Cu
  Cu12     1.0000 0.96319  0.46862  0.01485  Biso   1.000  Cu
  Cu13     1.0000 0.24095  0.74896  0.46218  Biso   1.000  Cu
  Cu14     1.0000 0.29744  0.80286  0.46218  Biso   1.000  Cu
  Cu15     1.0000 0.04615  0.00038  0.95674  Biso   1.000  Cu
  Cu16     1.0000 0.99225  0.05687  0.95674  Biso   1.000  Cu
  H129     1.0000 0.52138  0.61988  0.63114  Biso   1.000  H
  H130     1.0000 0.57977  0.68428  0.59272  Biso   1.000  H
  H131     1.0000 0.67304  0.58863  0.59555  Biso   1.000  H
  H132     1.0000 0.61455  0.52964  0.63397  Biso   1.000  H
  H133     1.0000 0.36438  0.64901  0.57635  Biso   1.000  H
  H134     1.0000 0.35568  0.70953  0.53308  Biso   1.000  H
  H135     1.0000 0.24553  0.62838  0.53895  Biso   1.000  H
  H136     1.0000 0.25423  0.56796  0.58221  Biso   1.000  H
  H137     1.0000 0.47833  0.46255  0.71544  Biso   1.000  H
  H138     1.0000 0.41926  0.54999  0.63983  Biso   1.000  H
  H139     1.0000 0.29115  0.48921  0.66591  Biso   1.000  H
  H140     1.0000 0.30103  0.43185  0.71160  Biso   1.000  H
  H141     1.0000 0.47230  0.56135  0.64954  Biso   1.000  H
  H142     1.0000 0.53378  0.50229  0.67177  Biso   1.000  H
  H143     1.0000 0.37447  0.58983  0.60728  Biso   1.000  H
  H144     1.0000 0.29050  0.53271  0.62325  Biso   1.000  H
  H145     1.0000 0.84263  0.75757  0.63114  Biso   1.000  H
  H146     1.0000 0.82265  0.73699  0.59272  Biso   1.000  H
  H147     1.0000 0.72655  0.82440  0.59555  Biso   1.000  H
  H148     1.0000 0.74663  0.84497  0.63397  Biso   1.000  H
  H149     1.0000 0.05442  0.78865  0.57635  Biso   1.000  H
  H150     1.0000 0.10639  0.77139  0.53308  Biso   1.000  H
  H151     1.0000 0.21609  0.84126  0.53895  Biso   1.000  H
  H152     1.0000 0.16412  0.85842  0.58221  Biso   1.000  H
  H153     1.0000 0.80137  0.83059  0.71544  Biso   1.000  H
  H154     1.0000 0.93605  0.81877  0.63983  Biso   1.000  H
  H155     1.0000 0.03809  0.85347  0.66591  Biso   1.000  H
  H156     1.0000 0.98252  0.86513  0.71160  Biso   1.000  H
  H157     1.0000 0.87332  0.79770  0.64954  Biso   1.000  H
  H158     1.0000 0.78959  0.83452  0.67177  Biso   1.000  H
  H159     1.0000 0.01340  0.81147  0.60728  Biso   1.000  H
  H160     1.0000 0.08140  0.85262  0.62325  Biso   1.000  H
  H161     1.0000 0.86858  0.60206  0.12570  Biso   1.000  H
  H162     1.0000 0.92757  0.58208  0.08729  Biso   1.000  H
  H163     1.0000 0.83734  0.48598  0.09012  Biso   1.000  H
  H164     1.0000 0.77835  0.50606  0.12853  Biso   1.000  H
  H165     1.0000 0.89230  0.81927  0.07091  Biso   1.000  H
  H166     1.0000 0.95282  0.87124  0.02765  Biso   1.000  H
  H167     1.0000 0.87708  0.97552  0.03351  Biso   1.000  H
  H168     1.0000 0.81666  0.92355  0.07677  Biso   1.000  H
  H169     1.0000 0.71125  0.56081  0.21001  Biso   1.000  H
  H170     1.0000 0.79869  0.70090  0.13439  Biso   1.000  H
  H171     1.0000 0.73791  0.80293  0.16047  Biso   1.000  H
  H172     1.0000 0.68056  0.74737  0.20617  Biso   1.000  H
  H173     1.0000 0.81005  0.63275  0.14410  Biso   1.000  H
  H174     1.0000 0.75099  0.54902  0.16634  Biso   1.000  H
  H175     1.0000 0.83854  0.77824  0.10184  Biso   1.000  H
  H176     1.0000 0.78142  0.84624  0.11782  Biso   1.000  H
  H177     1.0000 0.00086  0.28081  0.12570  Biso   1.000  H
  H178     1.0000 0.98028  0.33921  0.08729  Biso   1.000  H
  H179     1.0000 0.06768  0.43248  0.09012  Biso   1.000  H
  H180     1.0000 0.08826  0.37398  0.12853  Biso   1.000  H
  H181     1.0000 0.03194  0.12381  0.07091  Biso   1.000  H
  H182     1.0000 0.01468  0.11511  0.02765  Biso   1.000  H
  H183     1.0000 0.08455  0.00496  0.03351  Biso   1.000  H
  H184     1.0000 0.10171  0.01366  0.07677  Biso   1.000  H
  H185     1.0000 0.07388  0.23777  0.21001  Biso   1.000  H
  H186     1.0000 0.06206  0.17870  0.13439  Biso   1.000  H
  H187     1.0000 0.09676  0.05059  0.16047  Biso   1.000  H
  H188     1.0000 0.10842  0.06046  0.20617  Biso   1.000  H
  H189     1.0000 0.04099  0.23173  0.14410  Biso   1.000  H
  H190     1.0000 0.07781  0.29322  0.16634  Biso   1.000  H
  H191     1.0000 0.05476  0.13391  0.10184  Biso   1.000  H
  H192     1.0000 0.09591  0.04993  0.11782  Biso   1.000  H
  H193     1.0000 0.16399  0.89747  0.35133  Biso   1.000  H
  H194     1.0000 0.18397  0.83848  0.38974  Biso   1.000  H
  H195     1.0000 0.28007  0.92872  0.38691  Biso   1.000  H
  H196     1.0000 0.25999  0.98771  0.34850  Biso   1.000  H
  H197     1.0000 0.94679  0.87376  0.40612  Biso   1.000  H
  H198     1.0000 0.89482  0.81324  0.44938  Biso   1.000  H
  H199     1.0000 0.79053  0.88897  0.44352  Biso   1.000  H
  H200     1.0000 0.84250  0.94940  0.40025  Biso   1.000  H
  H201     1.0000 0.20525  0.05480  0.26702  Biso   1.000  H
  H202     1.0000 0.06516  0.96736  0.34263  Biso   1.000  H
  H203     1.0000 0.96312  0.02814  0.31655  Biso   1.000  H
  H204     1.0000 0.01869  0.08550  0.27086  Biso   1.000  H
  H205     1.0000 0.13331  0.95600  0.33293  Biso   1.000  H
  H206     1.0000 0.21703  0.01506  0.31069  Biso   1.000  H
  H207     1.0000 0.98781  0.92752  0.37518  Biso   1.000  H
  H208     1.0000 0.91981  0.98464  0.35921  Biso   1.000  H
  H209     1.0000 0.48524  0.76519  0.35133  Biso   1.000  H
  H210     1.0000 0.42685  0.78577  0.38974  Biso   1.000  H
  H211     1.0000 0.33358  0.69837  0.38691  Biso   1.000  H
  H212     1.0000 0.39207  0.67779  0.34850  Biso   1.000  H
  H213     1.0000 0.64225  0.73412  0.40612  Biso   1.000  H
  H214     1.0000 0.65095  0.75138  0.44938  Biso   1.000  H
  H215     1.0000 0.76110  0.68150  0.44352  Biso   1.000  H
  H216     1.0000 0.75239  0.66435  0.40025  Biso   1.000  H
  H217     1.0000 0.52829  0.69217  0.26702  Biso   1.000  H
  H218     1.0000 0.58736  0.70400  0.34263  Biso   1.000  H
  H219     1.0000 0.71547  0.66930  0.31655  Biso   1.000  H
  H220     1.0000 0.70560  0.65763  0.27086  Biso   1.000  H
  H221     1.0000 0.53433  0.72506  0.33293  Biso   1.000  H
  H222     1.0000 0.47284  0.68824  0.31069  Biso   1.000  H
  H223     1.0000 0.63215  0.71130  0.37518  Biso   1.000  H
  H224     1.0000 0.71612  0.67015  0.35921  Biso   1.000  H
  H225     1.0000 0.00849  0.92342  0.84589  Biso   1.000  H
  H226     1.0000 0.02906  0.94340  0.88430  Biso   1.000  H
  H227     1.0000 0.94166  0.03950  0.88147  Biso   1.000  H
  H228     1.0000 0.92108  0.01942  0.84306  Biso   1.000  H
  H229     1.0000 0.97741  0.71163  0.90068  Biso   1.000  H
  H230     1.0000 0.99467  0.65967  0.94395  Biso   1.000  H
  H231     1.0000 0.92479  0.54997  0.93808  Biso   1.000  H
  H232     1.0000 0.90764  0.60193  0.89482  Biso   1.000  H
  H233     1.0000 0.93547  0.96468  0.76158  Biso   1.000  H
  H234     1.0000 0.94729  0.83000  0.83720  Biso   1.000  H
  H235     1.0000 0.91259  0.72797  0.81112  Biso   1.000  H
  H236     1.0000 0.90092  0.78354  0.76543  Biso   1.000  H
  H237     1.0000 0.96835  0.89274  0.82749  Biso   1.000  H
  H238     1.0000 0.93153  0.97646  0.80525  Biso   1.000  H
  H239     1.0000 0.95459  0.75266  0.86975  Biso   1.000  H
  H240     1.0000 0.91344  0.68466  0.85378  Biso   1.000  H
  H241     1.0000 0.14618  0.24468  0.84589  Biso   1.000  H
  H242     1.0000 0.08177  0.18628  0.88430  Biso   1.000  H
  H243     1.0000 0.17742  0.09301  0.88147  Biso   1.000  H
  H244     1.0000 0.23641  0.15151  0.84306  Biso   1.000  H
  H245     1.0000 0.11705  0.40168  0.90068  Biso   1.000  H
  H246     1.0000 0.05653  0.41038  0.94395  Biso   1.000  H
  H247     1.0000 0.13768  0.52053  0.93808  Biso   1.000  H
  H248     1.0000 0.19810  0.51182  0.89482  Biso   1.000  H
  H249     1.0000 0.30351  0.28772  0.76158  Biso   1.000  H
  H250     1.0000 0.21607  0.34679  0.83720  Biso   1.000  H
  H251     1.0000 0.27685  0.47490  0.81112  Biso   1.000  H
  H252     1.0000 0.33421  0.46503  0.76543  Biso   1.000  H
  H253     1.0000 0.20471  0.29376  0.82749  Biso   1.000  H
  H254     1.0000 0.26377  0.23227  0.80525  Biso   1.000  H
  H255     1.0000 0.17622  0.39158  0.86975  Biso   1.000  H
  H256     1.0000 0.23334  0.47555  0.85378  Biso   1.000  H
  C241     1.0000 0.56217  0.56897  0.63627  Biso   1.000  C
  C242     1.0000 0.55177  0.61357  0.62406  Biso   1.000  C
  C243     1.0000 0.58677  0.65438  0.60101  Biso   1.000  C
  C244     1.0000 0.63218  0.64498  0.59036  Biso   1.000  C
  C245     1.0000 0.64265  0.59494  0.60263  Biso   1.000  C
  C246     1.0000 0.60765  0.55955  0.62568  Biso   1.000  C
  C247     1.0000 0.67190  0.68480  0.56482  Biso   1.000  C
  C248     1.0000 0.31022  0.59978  0.58361  Biso   1.000  C
  C249     1.0000 0.34057  0.64598  0.56887  Biso   1.000  C
  C250     1.0000 0.33531  0.68220  0.54299  Biso   1.000  C
  C251     1.0000 0.29975  0.67767  0.53175  Biso   1.000  C
  C252     1.0000 0.26934  0.63691  0.54643  Biso   1.000  C
  C253     1.0000 0.27460  0.59529  0.57230  Biso   1.000  C
  C254     1.0000 0.29076  0.71314  0.50478  Biso   1.000  C
  C255     1.0000 0.37330  0.42266  0.72978  Biso   1.000  C
  C256     1.0000 0.41529  0.42497  0.73431  Biso   1.000  C
  C257     1.0000 0.45031  0.46098  0.71241  Biso   1.000  C
  C258     1.0000 0.44308  0.49473  0.68609  Biso   1.000  C
  C259     1.0000 0.40107  0.49241  0.68158  Biso   1.000  C
  C260     1.0000 0.36624  0.45648  0.70331  Biso   1.000  C
  C261     1.0000 0.39508  0.52660  0.65419  Biso   1.000  C
  C262     1.0000 0.35355  0.52615  0.64812  Biso   1.000  C
  C263     1.0000 0.31887  0.49057  0.66955  Biso   1.000  C
  C264     1.0000 0.32511  0.45564  0.69725  Biso   1.000  C
  C265     1.0000 0.47995  0.53419  0.66227  Biso   1.000  C
  C266     1.0000 0.52602  0.52954  0.65944  Biso   1.000  C
  C267     1.0000 0.35180  0.56437  0.61941  Biso   1.000  C
  C268     1.0000 0.31257  0.55876  0.61193  Biso   1.000  C
  C269     1.0000 0.79670  0.80334  0.63627  Biso   1.000  C
  C270     1.0000 0.81932  0.77096  0.62406  Biso   1.000  C
  C271     1.0000 0.80737  0.75861  0.60101  Biso   1.000  C
  C272     1.0000 0.77261  0.77866  0.59036  Biso   1.000  C
  C273     1.0000 0.74987  0.81101  0.60263  Biso   1.000  C
  C274     1.0000 0.76182  0.82336  0.62568  Biso   1.000  C
  C275     1.0000 0.75843  0.76437  0.56482  Biso   1.000  C
  C276     1.0000 0.10132  0.82520  0.58361  Biso   1.000  C
  C277     1.0000 0.08571  0.79915  0.56887  Biso   1.000  C
  C278     1.0000 0.11685  0.78881  0.54299  Biso   1.000  C
  C279     1.0000 0.16906  0.80458  0.53175  Biso   1.000  C
  C280     1.0000 0.18480  0.83066  0.54643  Biso   1.000  C
  C281     1.0000 0.15366  0.84099  0.57230  Biso   1.000  C
  C282     1.0000 0.20503  0.79608  0.50478  Biso   1.000  C
  C283     1.0000 0.89207  0.85615  0.72978  Biso   1.000  C
  C284     1.0000 0.84555  0.84931  0.73431  Biso   1.000  C
  C285     1.0000 0.83243  0.83519  0.71241  Biso   1.000  C
  C286     1.0000 0.86598  0.82776  0.68609  Biso   1.000  C
  C287     1.0000 0.91249  0.83459  0.68158  Biso   1.000  C
  C288     1.0000 0.92560  0.84879  0.70331  Biso   1.000  C
  C289     1.0000 0.94588  0.82780  0.65419  Biso   1.000  C
  C290     1.0000 0.99347  0.83432  0.64812  Biso   1.000  C
  C291     1.0000 0.00673  0.84847  0.66955  Biso   1.000  C
  C292     1.0000 0.97279  0.85570  0.69725  Biso   1.000  C
  C293     1.0000 0.85292  0.81212  0.66227  Biso   1.000  C
  C294     1.0000 0.80968  0.81960  0.65944  Biso   1.000  C
  C295     1.0000 0.02394  0.82480  0.61941  Biso   1.000  C
  C296     1.0000 0.07065  0.83789  0.61193  Biso   1.000  C
  C297     1.0000 0.81767  0.55613  0.13084  Biso   1.000  C
  C298     1.0000 0.86227  0.57875  0.11862  Biso   1.000  C
  C299     1.0000 0.89766  0.56680  0.09558  Biso   1.000  C
  C300     1.0000 0.88827  0.53205  0.08492  Biso   1.000  C
  C301     1.0000 0.84365  0.50930  0.09719  Biso   1.000  C
  C302     1.0000 0.80825  0.52125  0.12024  Biso   1.000  C
  C303     1.0000 0.92809  0.51786  0.05939  Biso   1.000  C
  C304     1.0000 0.84849  0.86617  0.07817  Biso   1.000  C
  C305     1.0000 0.88927  0.85056  0.06343  Biso   1.000  C
  C306     1.0000 0.92549  0.88170  0.03755  Biso   1.000  C
  C307     1.0000 0.92096  0.92850  0.02631  Biso   1.000  C
  C308     1.0000 0.88020  0.94423  0.04099  Biso   1.000  C
  C309     1.0000 0.84399  0.91309  0.06687  Biso   1.000  C
  C310     1.0000 0.95643  0.96446  0.99934  Biso   1.000  C
  C311     1.0000 0.67137  0.65692  0.22434  Biso   1.000  C
  C312     1.0000 0.67367  0.60498  0.22887  Biso   1.000  C
  C313     1.0000 0.70969  0.59186  0.20697  Biso   1.000  C
  C314     1.0000 0.74344  0.62541  0.18065  Biso   1.000  C
  C315     1.0000 0.74112  0.67734  0.17614  Biso   1.000  C
  C316     1.0000 0.70519  0.69044  0.19788  Biso   1.000  C
  C317     1.0000 0.77530  0.71073  0.14875  Biso   1.000  C
  C318     1.0000 0.77486  0.75832  0.14268  Biso   1.000  C
  C319     1.0000 0.73928  0.77158  0.16411  Biso   1.000  C
  C320     1.0000 0.70434  0.73764  0.19181  Biso   1.000  C
  C321     1.0000 0.78289  0.61236  0.15684  Biso   1.000  C
  C322     1.0000 0.77824  0.56911  0.15400  Biso   1.000  C
  C323     1.0000 0.81308  0.78879  0.11397  Biso   1.000  C
  C324     1.0000 0.80747  0.83549  0.10649  Biso   1.000  C
  C325     1.0000 0.04663  0.32161  0.13084  Biso   1.000  C
  C326     1.0000 0.01424  0.31121  0.11862  Biso   1.000  C
  C327     1.0000 0.00190  0.34620  0.09558  Biso   1.000  C
  C328     1.0000 0.02195  0.39161  0.08492  Biso   1.000  C
  C329     1.0000 0.05430  0.40208  0.09719  Biso   1.000  C
  C330     1.0000 0.06665  0.36709  0.12024  Biso   1.000  C
  C331     1.0000 0.00766  0.43133  0.05939  Biso   1.000  C
  C332     1.0000 0.06849  0.06966  0.07817  Biso   1.000  C
  C333     1.0000 0.04244  0.10000  0.06343  Biso   1.000  C
  C334     1.0000 0.03210  0.09474  0.03755  Biso   1.000  C
  C335     1.0000 0.04787  0.05918  0.02631  Biso   1.000  C
  C336     1.0000 0.07395  0.02877  0.04099  Biso   1.000  C
  C337     1.0000 0.08428  0.03403  0.06687  Biso   1.000  C
  C338     1.0000 0.03937  0.05019  0.99934  Biso   1.000  C
  C339     1.0000 0.09944  0.13273  0.22434  Biso   1.000  C
  C340     1.0000 0.09260  0.17473  0.22887  Biso   1.000  C
  C341     1.0000 0.07848  0.20974  0.20697  Biso   1.000  C
  C342     1.0000 0.07105  0.20251  0.18065  Biso   1.000  C
  C343     1.0000 0.07788  0.16051  0.17614  Biso   1.000  C
  C344     1.0000 0.09208  0.12567  0.19788  Biso   1.000  C
  C345     1.0000 0.07109  0.15451  0.14875  Biso   1.000  C
  C346     1.0000 0.07761  0.11299  0.14268  Biso   1.000  C
  C347     1.0000 0.09176  0.07831  0.16411  Biso   1.000  C
  C348     1.0000 0.09899  0.08455  0.19181  Biso   1.000  C
  C349     1.0000 0.05541  0.23939  0.15684  Biso   1.000  C
  C350     1.0000 0.06289  0.28546  0.15400  Biso   1.000  C
  C351     1.0000 0.06809  0.11123  0.11397  Biso   1.000  C
  C352     1.0000 0.08118  0.07201  0.10649  Biso   1.000  C
  C353     1.0000 0.20992  0.94838  0.34619  Biso   1.000  C
  C354     1.0000 0.18731  0.90378  0.35840  Biso   1.000  C
  C355     1.0000 0.19926  0.86839  0.38145  Biso   1.000  C
  C356     1.0000 0.23401  0.87778  0.39211  Biso   1.000  C
  C357     1.0000 0.25676  0.92241  0.37983  Biso   1.000  C
  C358     1.0000 0.24481  0.95780  0.35679  Biso   1.000  C
  C359     1.0000 0.24820  0.83796  0.41764  Biso   1.000  C
  C360     1.0000 0.89989  0.91757  0.39886  Biso   1.000  C
  C361     1.0000 0.91550  0.87678  0.41360  Biso   1.000  C
  C362     1.0000 0.88436  0.84057  0.43948  Biso   1.000  C
  C363     1.0000 0.83756  0.84510  0.45072  Biso   1.000  C
  C364     1.0000 0.82182  0.88585  0.43604  Biso   1.000  C
  C365     1.0000 0.85296  0.92206  0.41016  Biso   1.000  C
  C366     1.0000 0.80160  0.80963  0.47769  Biso   1.000  C
  C367     1.0000 0.10913  0.09469  0.25269  Biso   1.000  C
  C368     1.0000 0.16107  0.09238  0.24816  Biso   1.000  C
  C369     1.0000 0.17419  0.05637  0.27005  Biso   1.000  C
  C370     1.0000 0.14064  0.02262  0.29638  Biso   1.000  C
  C371     1.0000 0.08871  0.02494  0.30088  Biso   1.000  C
  C372     1.0000 0.07561  0.06087  0.27915  Biso   1.000  C
  C373     1.0000 0.05533  0.99075  0.32828  Biso   1.000  C
  C374     1.0000 0.00774  0.99120  0.33434  Biso   1.000  C
  C375     1.0000 0.99448  0.02678  0.31291  Biso   1.000  C
  C376     1.0000 0.02842  0.06172  0.28522  Biso   1.000  C
  C377     1.0000 0.15370  0.98316  0.32019  Biso   1.000  C
  C378     1.0000 0.19694  0.98781  0.32302  Biso   1.000  C
  C379     1.0000 0.97727  0.95298  0.36305  Biso   1.000  C
  C380     1.0000 0.93056  0.95859  0.37053  Biso   1.000  C
  C381     1.0000 0.44445  0.71943  0.34619  Biso   1.000  C
  C382     1.0000 0.45485  0.75181  0.35840  Biso   1.000  C
  C383     1.0000 0.41986  0.76416  0.38145  Biso   1.000  C
  C384     1.0000 0.37445  0.74411  0.39211  Biso   1.000  C
  C385     1.0000 0.36397  0.71175  0.37983  Biso   1.000  C
  C386     1.0000 0.39897  0.69941  0.35679  Biso   1.000  C
  C387     1.0000 0.33473  0.75839  0.41764  Biso   1.000  C
  C388     1.0000 0.69640  0.69757  0.39886  Biso   1.000  C
  C389     1.0000 0.66606  0.72362  0.41360  Biso   1.000  C
  C390     1.0000 0.67132  0.73395  0.43948  Biso   1.000  C
  C391     1.0000 0.70687  0.71819  0.45072  Biso   1.000  C
  C392     1.0000 0.73729  0.69211  0.43604  Biso   1.000  C
  C393     1.0000 0.73202  0.68177  0.41016  Biso   1.000  C
  C394     1.0000 0.71587  0.72668  0.47769  Biso   1.000  C
  C395     1.0000 0.63333  0.66662  0.25269  Biso   1.000  C
  C396     1.0000 0.59133  0.67346  0.24816  Biso   1.000  C
  C397     1.0000 0.55632  0.68758  0.27005  Biso   1.000  C
  C398     1.0000 0.56354  0.69500  0.29638  Biso   1.000  C
  C399     1.0000 0.60555  0.68817  0.30088  Biso   1.000  C
  C400     1.0000 0.64038  0.67398  0.27915  Biso   1.000  C
  C401     1.0000 0.61154  0.69496  0.32828  Biso   1.000  C
  C402     1.0000 0.65307  0.68845  0.33434  Biso   1.000  C
  C403     1.0000 0.68775  0.67430  0.31291  Biso   1.000  C
  C404     1.0000 0.68151  0.66706  0.28522  Biso   1.000  C
  C405     1.0000 0.52667  0.71064  0.32019  Biso   1.000  C
  C406     1.0000 0.48060  0.70316  0.32302  Biso   1.000  C
  C407     1.0000 0.65483  0.69797  0.36305  Biso   1.000  C
  C408     1.0000 0.69405  0.68488  0.37053  Biso   1.000  C
  C409     1.0000 0.96272  0.96936  0.84076  Biso   1.000  C
  C410     1.0000 0.99510  0.94674  0.85297  Biso   1.000  C
  C411     1.0000 0.00745  0.95869  0.87601  Biso   1.000  C
  C412     1.0000 0.98740  0.99344  0.88667  Biso   1.000  C
  C413     1.0000 0.95505  0.01619  0.87440  Biso   1.000  C
  C414     1.0000 0.94270  0.00424  0.85135  Biso   1.000  C
  C415     1.0000 0.00169  0.00763  0.91220  Biso   1.000  C
  C416     1.0000 0.94086  0.66474  0.89342  Biso   1.000  C
  C417     1.0000 0.96691  0.68034  0.90816  Biso   1.000  C
  C418     1.0000 0.97724  0.64920  0.93404  Biso   1.000  C
  C419     1.0000 0.96147  0.59699  0.94528  Biso   1.000  C
  C420     1.0000 0.93539  0.58126  0.93060  Biso   1.000  C
  C421     1.0000 0.92506  0.61240  0.90472  Biso   1.000  C
  C422     1.0000 0.96997  0.56103  0.97225  Biso   1.000  C
  C423     1.0000 0.90991  0.87398  0.74725  Biso   1.000  C
  C424     1.0000 0.91675  0.92051  0.74272  Biso   1.000  C
  C425     1.0000 0.93087  0.93363  0.76462  Biso   1.000  C
  C426     1.0000 0.93829  0.90008  0.79094  Biso   1.000  C
  C427     1.0000 0.93146  0.85356  0.79545  Biso   1.000  C
  C428     1.0000 0.91727  0.84046  0.77371  Biso   1.000  C
  C429     1.0000 0.93826  0.82017  0.82284  Biso   1.000  C
  C430     1.0000 0.93174  0.77258  0.82891  Biso   1.000  C
  C431     1.0000 0.91759  0.75933  0.80748  Biso   1.000  C
  C432     1.0000 0.91036  0.79327  0.77978  Biso   1.000  C
  C433     1.0000 0.95394  0.91313  0.81476  Biso   1.000  C
  C434     1.0000 0.94645  0.95637  0.81759  Biso   1.000  C
  C435     1.0000 0.94126  0.74212  0.85762  Biso   1.000  C
  C436     1.0000 0.92817  0.69541  0.86510  Biso   1.000  C
  C437     1.0000 0.19708  0.20388  0.84076  Biso   1.000  C
  C438     1.0000 0.15249  0.21428  0.85297  Biso   1.000  C
  C439     1.0000 0.11168  0.17929  0.87601  Biso   1.000  C
  C440     1.0000 0.12107  0.13388  0.88667  Biso   1.000  C
  C441     1.0000 0.17111  0.12340  0.87440  Biso   1.000  C
  C442     1.0000 0.20651  0.15840  0.85135  Biso   1.000  C
  C443     1.0000 0.08125  0.09416  0.91220  Biso   1.000  C
  C444     1.0000 0.16627  0.45583  0.89342  Biso   1.000  C
  C445     1.0000 0.12007  0.42549  0.90816  Biso   1.000  C
  C446     1.0000 0.08386  0.43075  0.93404  Biso   1.000  C
  C447     1.0000 0.08838  0.46630  0.94528  Biso   1.000  C
  C448     1.0000 0.12914  0.49672  0.93060  Biso   1.000  C
  C449     1.0000 0.17077  0.49146  0.90472  Biso   1.000  C
  C450     1.0000 0.05292  0.47530  0.97225  Biso   1.000  C
  C451     1.0000 0.34339  0.39276  0.74725  Biso   1.000  C
  C452     1.0000 0.34108  0.35076  0.74272  Biso   1.000  C
  C453     1.0000 0.30507  0.31575  0.76462  Biso   1.000  C
  C454     1.0000 0.27132  0.32297  0.79094  Biso   1.000  C
  C455     1.0000 0.27364  0.36498  0.79545  Biso   1.000  C
  C456     1.0000 0.30957  0.39981  0.77371  Biso   1.000  C
  C457     1.0000 0.23946  0.37097  0.82284  Biso   1.000  C
  C458     1.0000 0.23991  0.41250  0.82891  Biso   1.000  C
  C459     1.0000 0.27549  0.44718  0.80748  Biso   1.000  C
  C460     1.0000 0.31042  0.44094  0.77978  Biso   1.000  C
  C461     1.0000 0.23187  0.28610  0.81476  Biso   1.000  C
  C462     1.0000 0.23652  0.24003  0.81759  Biso   1.000  C
  C463     1.0000 0.20168  0.41426  0.85762  Biso   1.000  C
  C464     1.0000 0.20729  0.45348  0.86510  Biso   1.000  C
  O41      1.0000 0.66093  0.72585  0.55593  Biso   1.000  O
  O42      1.0000 0.71227  0.67743  0.55391  Biso   1.000  O
  O43      1.0000 0.25621  0.70505  0.49669  Biso   1.000  O
  O44      1.0000 0.31386  0.75265  0.48901  Biso   1.000  O
  O45      1.0000 0.43132  0.39932  0.74844  Biso   1.000  O
  O46      1.0000 0.77829  0.73222  0.55593  Biso   1.000  O
  O47      1.0000 0.72898  0.78266  0.55391  Biso   1.000  O
  O48      1.0000 0.24766  0.81226  0.49669  Biso   1.000  O
  O49      1.0000 0.19769  0.77234  0.48901  Biso   1.000  O
  O50      1.0000 0.82080  0.86622  0.74844  Biso   1.000  O
  O51      1.0000 0.96914  0.53772  0.05049  Biso   1.000  O
  O52      1.0000 0.92072  0.48841  0.04847  Biso   1.000  O
  O53      1.0000 0.94834  0.00709  0.99125  Biso   1.000  O
  O54      1.0000 0.99594  0.95713  0.98357  Biso   1.000  O
  O55      1.0000 0.63989  0.57209  0.25388  Biso   1.000  O
  O56      1.0000 0.97551  0.42036  0.05049  Biso   1.000  O
  O57      1.0000 0.02595  0.47170  0.04847  Biso   1.000  O
  O58      1.0000 0.05555  0.01565  0.99125  Biso   1.000  O
  O59      1.0000 0.01563  0.07329  0.98357  Biso   1.000  O
  O60      1.0000 0.10138  0.18261  0.25388  Biso   1.000  O
  O61      1.0000 0.22833  0.79691  0.42654  Biso   1.000  O
  O62      1.0000 0.27765  0.84533  0.42856  Biso   1.000  O
  O63      1.0000 0.75896  0.81772  0.48577  Biso   1.000  O
  O64      1.0000 0.80893  0.77012  0.49346  Biso   1.000  O
  O65      1.0000 0.19397  0.12617  0.22315  Biso   1.000  O
  O66      1.0000 0.34569  0.79055  0.42654  Biso   1.000  O
  O67      1.0000 0.29436  0.74011  0.42856  Biso   1.000  O
  O68      1.0000 0.75041  0.71050  0.48577  Biso   1.000  O
  O69      1.0000 0.69276  0.75042  0.49346  Biso   1.000  O
  O70      1.0000 0.58345  0.66468  0.22315  Biso   1.000  O
  O71      1.0000 0.03384  0.98777  0.92110  Biso   1.000  O
  O72      1.0000 0.98340  0.03708  0.92312  Biso   1.000  O
  O73      1.0000 0.95379  0.51840  0.98034  Biso   1.000  O
  O74      1.0000 0.99371  0.56836  0.98802  Biso   1.000  O
  O75      1.0000 0.89983  0.94526  0.72859  Biso   1.000  O
  O76      1.0000 0.04020  0.10513  0.92110  Biso   1.000  O
  O77      1.0000 0.08862  0.05379  0.92312  Biso   1.000  O
  O78      1.0000 0.06101  0.50984  0.98034  Biso   1.000  O
  O79      1.0000 0.01341  0.45219  0.98802  Biso   1.000  O
