data_image0
_cell_length_a       48.3033
_cell_length_b       48.3033
_cell_length_c       48.3033
_cell_angle_alpha    60
_cell_angle_beta     60
_cell_angle_gamma    60

_symmetry_space_group_name_H-M    "P 1"
_symmetry_int_tables_number       1

loop_
  _symmetry_equiv_pos_as_xyz
  'x, y, z'

loop_
  _atom_site_label
  _atom_site_occupancy
  _atom_site_fract_x
  _atom_site_fract_y
  _atom_site_fract_z
  _atom_site_thermal_displace_type
  _atom_site_B_iso_or_equiv
  _atom_site_type_symbol
  Cu1      1.0000 0.50000  0.02728  0.97272  Biso   1.000  Cu
  Cu2      1.0000 0.02728  0.50000  0.50000  Biso   1.000  Cu
  Cu3      1.0000 0.97272  0.50000  0.50000  Biso   1.000  Cu
  Cu4      1.0000 0.50000  0.97272  0.02728  Biso   1.000  Cu
  Cu5      1.0000 0.50000  0.97272  0.50000  Biso   1.000  Cu
  Cu6      1.0000 0.02728  0.50000  0.97272  Biso   1.000  Cu
  Cu7      1.0000 0.97272  0.50000  0.02728  Biso   1.000  Cu
  Cu8      1.0000 0.50000  0.02728  0.50000  Biso   1.000  Cu
  Cu9      1.0000 0.50000  0.50000  0.02728  Biso   1.000  Cu
  Cu10     1.0000 0.02728  0.97272  0.50000  Biso   1.000  Cu
  Cu11     1.0000 0.97272  0.02728  0.50000  Biso   1.000  Cu
  Cu12     1.0000 0.50000  0.50000  0.97272  Biso   1.000  Cu
  H1       1.0000 0.52450  0.16270  0.07810  Biso   1.000  H
  H2       1.0000 0.52040  0.13580  0.05120  Biso   1.000  H
  H3       1.0000 0.52310  0.11230  0.02730  Biso   1.000  H
  H4       1.0000 0.51490  0.08690  0.00190  Biso   1.000  H
  H5       1.0000 0.16270  0.52450  0.23470  Biso   1.000  H
  H6       1.0000 0.13580  0.52040  0.29260  Biso   1.000  H
  H7       1.0000 0.11230  0.52310  0.33730  Biso   1.000  H
  H8       1.0000 0.08690  0.51490  0.39630  Biso   1.000  H
  H9       1.0000 0.07810  0.23470  0.52450  Biso   1.000  H
  H10      1.0000 0.05120  0.29260  0.52040  Biso   1.000  H
  H11      1.0000 0.02730  0.33730  0.52310  Biso   1.000  H
  H12      1.0000 0.00190  0.39630  0.51490  Biso   1.000  H
  H13      1.0000 0.23470  0.07810  0.16270  Biso   1.000  H
  H14      1.0000 0.29260  0.05120  0.13580  Biso   1.000  H
  H15      1.0000 0.33730  0.02730  0.11230  Biso   1.000  H
  H16      1.0000 0.39630  0.00190  0.08690  Biso   1.000  H
  H17      1.0000 0.52450  0.07810  0.23470  Biso   1.000  H
  H18      1.0000 0.52040  0.05120  0.29260  Biso   1.000  H
  H19      1.0000 0.52310  0.02730  0.33730  Biso   1.000  H
  H20      1.0000 0.51490  0.00190  0.39630  Biso   1.000  H
  H21      1.0000 0.16270  0.23470  0.07810  Biso   1.000  H
  H22      1.0000 0.13580  0.29260  0.05120  Biso   1.000  H
  H23      1.0000 0.11230  0.33730  0.02730  Biso   1.000  H
  H24      1.0000 0.08690  0.39630  0.00190  Biso   1.000  H
  H25      1.0000 0.07810  0.52450  0.16270  Biso   1.000  H
  H26      1.0000 0.05120  0.52040  0.13580  Biso   1.000  H
  H27      1.0000 0.02730  0.52310  0.11230  Biso   1.000  H
  H28      1.0000 0.00190  0.51490  0.08690  Biso   1.000  H
  H29      1.0000 0.23470  0.16270  0.52450  Biso   1.000  H
  H30      1.0000 0.29260  0.13580  0.52040  Biso   1.000  H
  H31      1.0000 0.33730  0.11230  0.52310  Biso   1.000  H
  H32      1.0000 0.39630  0.08690  0.51490  Biso   1.000  H
  H33      1.0000 0.52450  0.23470  0.16270  Biso   1.000  H
  H34      1.0000 0.52040  0.29260  0.13580  Biso   1.000  H
  H35      1.0000 0.52310  0.33730  0.11230  Biso   1.000  H
  H36      1.0000 0.51490  0.39630  0.08690  Biso   1.000  H
  H37      1.0000 0.16270  0.07810  0.52450  Biso   1.000  H
  H38      1.0000 0.13580  0.05120  0.52040  Biso   1.000  H
  H39      1.0000 0.11230  0.02730  0.52310  Biso   1.000  H
  H40      1.0000 0.08690  0.00190  0.51490  Biso   1.000  H
  H41      1.0000 0.07810  0.16270  0.23470  Biso   1.000  H
  H42      1.0000 0.05120  0.13580  0.29260  Biso   1.000  H
  H43      1.0000 0.02730  0.11230  0.33730  Biso   1.000  H
  H44      1.0000 0.00190  0.08690  0.39630  Biso   1.000  H
  H45      1.0000 0.23470  0.52450  0.07810  Biso   1.000  H
  H46      1.0000 0.29260  0.52040  0.05120  Biso   1.000  H
  H47      1.0000 0.33730  0.52310  0.02730  Biso   1.000  H
  H48      1.0000 0.39630  0.51490  0.00190  Biso   1.000  H
  H49      1.0000 0.83730  0.47550  0.92190  Biso   1.000  H
  H50      1.0000 0.86420  0.47960  0.94880  Biso   1.000  H
  H51      1.0000 0.88770  0.47690  0.97270  Biso   1.000  H
  H52      1.0000 0.91310  0.48510  0.99810  Biso   1.000  H
  H53      1.0000 0.47550  0.83730  0.76530  Biso   1.000  H
  H54      1.0000 0.47960  0.86420  0.70740  Biso   1.000  H
  H55      1.0000 0.47690  0.88770  0.66270  Biso   1.000  H
  H56      1.0000 0.48510  0.91310  0.60370  Biso   1.000  H
  H57      1.0000 0.76530  0.92190  0.47550  Biso   1.000  H
  H58      1.0000 0.70740  0.94880  0.47960  Biso   1.000  H
  H59      1.0000 0.66270  0.97270  0.47690  Biso   1.000  H
  H60      1.0000 0.60370  0.99810  0.48510  Biso   1.000  H
  H61      1.0000 0.92190  0.76530  0.83730  Biso   1.000  H
  H62      1.0000 0.94880  0.70740  0.86420  Biso   1.000  H
  H63      1.0000 0.97270  0.66270  0.88770  Biso   1.000  H
  H64      1.0000 0.99810  0.60370  0.91310  Biso   1.000  H
  H65      1.0000 0.92190  0.47550  0.76530  Biso   1.000  H
  H66      1.0000 0.94880  0.47960  0.70740  Biso   1.000  H
  H67      1.0000 0.97270  0.47690  0.66270  Biso   1.000  H
  H68      1.0000 0.99810  0.48510  0.60370  Biso   1.000  H
  H69      1.0000 0.76530  0.83730  0.92190  Biso   1.000  H
  H70      1.0000 0.70740  0.86420  0.94880  Biso   1.000  H
  H71      1.0000 0.66270  0.88770  0.97270  Biso   1.000  H
  H72      1.0000 0.60370  0.91310  0.99810  Biso   1.000  H
  H73      1.0000 0.47550  0.92190  0.83730  Biso   1.000  H
  H74      1.0000 0.47960  0.94880  0.86420  Biso   1.000  H
  H75      1.0000 0.47690  0.97270  0.88770  Biso   1.000  H
  H76      1.0000 0.48510  0.99810  0.91310  Biso   1.000  H
  H77      1.0000 0.83730  0.76530  0.47550  Biso   1.000  H
  H78      1.0000 0.86420  0.70740  0.47960  Biso   1.000  H
  H79      1.0000 0.88770  0.66270  0.47690  Biso   1.000  H
  H80      1.0000 0.91310  0.60370  0.48510  Biso   1.000  H
  H81      1.0000 0.76530  0.47550  0.83730  Biso   1.000  H
  H82      1.0000 0.70740  0.47960  0.86420  Biso   1.000  H
  H83      1.0000 0.66270  0.47690  0.88770  Biso   1.000  H
  H84      1.0000 0.60370  0.48510  0.91310  Biso   1.000  H
  H85      1.0000 0.92190  0.83730  0.47550  Biso   1.000  H
  H86      1.0000 0.94880  0.86420  0.47960  Biso   1.000  H
  H87      1.0000 0.97270  0.88770  0.47690  Biso   1.000  H
  H88      1.0000 0.99810  0.91310  0.48510  Biso   1.000  H
  H89      1.0000 0.83730  0.92190  0.76530  Biso   1.000  H
  H90      1.0000 0.86420  0.94880  0.70740  Biso   1.000  H
  H91      1.0000 0.88770  0.97270  0.66270  Biso   1.000  H
  H92      1.0000 0.91310  0.99810  0.60370  Biso   1.000  H
  H93      1.0000 0.47550  0.76530  0.92190  Biso   1.000  H
  H94      1.0000 0.47960  0.70740  0.94880  Biso   1.000  H
  H95      1.0000 0.47690  0.66270  0.97270  Biso   1.000  H
  H96      1.0000 0.48510  0.60370  0.99810  Biso   1.000  H
  H97      1.0000 0.47550  0.83730  0.92190  Biso   1.000  H
  H98      1.0000 0.47960  0.86420  0.94880  Biso   1.000  H
  H99      1.0000 0.47690  0.88770  0.97270  Biso   1.000  H
  H100     1.0000 0.48510  0.91310  0.99810  Biso   1.000  H
  H101     1.0000 0.83730  0.47550  0.76530  Biso   1.000  H
  H102     1.0000 0.86420  0.47960  0.70740  Biso   1.000  H
  H103     1.0000 0.88770  0.47690  0.66270  Biso   1.000  H
  H104     1.0000 0.91310  0.48510  0.60370  Biso   1.000  H
  H105     1.0000 0.92190  0.76530  0.47550  Biso   1.000  H
  H106     1.0000 0.94880  0.70740  0.47960  Biso   1.000  H
  H107     1.0000 0.97270  0.66270  0.47690  Biso   1.000  H
  H108     1.0000 0.99810  0.60370  0.48510  Biso   1.000  H
  H109     1.0000 0.76530  0.92190  0.83730  Biso   1.000  H
  H110     1.0000 0.70740  0.94880  0.86420  Biso   1.000  H
  H111     1.0000 0.66270  0.97270  0.88770  Biso   1.000  H
  H112     1.0000 0.60370  0.99810  0.91310  Biso   1.000  H
  H113     1.0000 0.47550  0.92190  0.76530  Biso   1.000  H
  H114     1.0000 0.47960  0.94880  0.70740  Biso   1.000  H
  H115     1.0000 0.47690  0.97270  0.66270  Biso   1.000  H
  H116     1.0000 0.48510  0.99810  0.60370  Biso   1.000  H
  H117     1.0000 0.83730  0.76530  0.92190  Biso   1.000  H
  H118     1.0000 0.86420  0.70740  0.94880  Biso   1.000  H
  H119     1.0000 0.88770  0.66270  0.97270  Biso   1.000  H
  H120     1.0000 0.91310  0.60370  0.99810  Biso   1.000  H
  H121     1.0000 0.92190  0.47550  0.83730  Biso   1.000  H
  H122     1.0000 0.94880  0.47960  0.86420  Biso   1.000  H
  H123     1.0000 0.97270  0.47690  0.88770  Biso   1.000  H
  H124     1.0000 0.99810  0.48510  0.91310  Biso   1.000  H
  H125     1.0000 0.76530  0.83730  0.47550  Biso   1.000  H
  H126     1.0000 0.70740  0.86420  0.47960  Biso   1.000  H
  H127     1.0000 0.66270  0.88770  0.47690  Biso   1.000  H
  H128     1.0000 0.60370  0.91310  0.48510  Biso   1.000  H
  H129     1.0000 0.47550  0.76530  0.83730  Biso   1.000  H
  H130     1.0000 0.47960  0.70740  0.86420  Biso   1.000  H
  H131     1.0000 0.47690  0.66270  0.88770  Biso   1.000  H
  H132     1.0000 0.48510  0.60370  0.91310  Biso   1.000  H
  H133     1.0000 0.83730  0.92190  0.47550  Biso   1.000  H
  H134     1.0000 0.86420  0.94880  0.47960  Biso   1.000  H
  H135     1.0000 0.88770  0.97270  0.47690  Biso   1.000  H
  H136     1.0000 0.91310  0.99810  0.48510  Biso   1.000  H
  H137     1.0000 0.92190  0.83730  0.76530  Biso   1.000  H
  H138     1.0000 0.94880  0.86420  0.70740  Biso   1.000  H
  H139     1.0000 0.97270  0.88770  0.66270  Biso   1.000  H
  H140     1.0000 0.99810  0.91310  0.60370  Biso   1.000  H
  H141     1.0000 0.76530  0.47550  0.92190  Biso   1.000  H
  H142     1.0000 0.70740  0.47960  0.94880  Biso   1.000  H
  H143     1.0000 0.66270  0.47690  0.97270  Biso   1.000  H
  H144     1.0000 0.60370  0.48510  0.99810  Biso   1.000  H
  H145     1.0000 0.16270  0.52450  0.07810  Biso   1.000  H
  H146     1.0000 0.13580  0.52040  0.05120  Biso   1.000  H
  H147     1.0000 0.11230  0.52310  0.02730  Biso   1.000  H
  H148     1.0000 0.08690  0.51490  0.00190  Biso   1.000  H
  H149     1.0000 0.52450  0.16270  0.23470  Biso   1.000  H
  H150     1.0000 0.52040  0.13580  0.29260  Biso   1.000  H
  H151     1.0000 0.52310  0.11230  0.33730  Biso   1.000  H
  H152     1.0000 0.51490  0.08690  0.39630  Biso   1.000  H
  H153     1.0000 0.23470  0.07810  0.52450  Biso   1.000  H
  H154     1.0000 0.29260  0.05120  0.52040  Biso   1.000  H
  H155     1.0000 0.33730  0.02730  0.52310  Biso   1.000  H
  H156     1.0000 0.39630  0.00190  0.51490  Biso   1.000  H
  H157     1.0000 0.07810  0.23470  0.16270  Biso   1.000  H
  H158     1.0000 0.05120  0.29260  0.13580  Biso   1.000  H
  H159     1.0000 0.02730  0.33730  0.11230  Biso   1.000  H
  H160     1.0000 0.00190  0.39630  0.08690  Biso   1.000  H
  H161     1.0000 0.07810  0.52450  0.23470  Biso   1.000  H
  H162     1.0000 0.05120  0.52040  0.29260  Biso   1.000  H
  H163     1.0000 0.02730  0.52310  0.33730  Biso   1.000  H
  H164     1.0000 0.00190  0.51490  0.39630  Biso   1.000  H
  H165     1.0000 0.23470  0.16270  0.07810  Biso   1.000  H
  H166     1.0000 0.29260  0.13580  0.05120  Biso   1.000  H
  H167     1.0000 0.33730  0.11230  0.02730  Biso   1.000  H
  H168     1.0000 0.39630  0.08690  0.00190  Biso   1.000  H
  H169     1.0000 0.52450  0.07810  0.16270  Biso   1.000  H
  H170     1.0000 0.52040  0.05120  0.13580  Biso   1.000  H
  H171     1.0000 0.52310  0.02730  0.11230  Biso   1.000  H
  H172     1.0000 0.51490  0.00190  0.08690  Biso   1.000  H
  H173     1.0000 0.16270  0.23470  0.52450  Biso   1.000  H
  H174     1.0000 0.13580  0.29260  0.52040  Biso   1.000  H
  H175     1.0000 0.11230  0.33730  0.52310  Biso   1.000  H
  H176     1.0000 0.08690  0.39630  0.51490  Biso   1.000  H
  H177     1.0000 0.23470  0.52450  0.16270  Biso   1.000  H
  H178     1.0000 0.29260  0.52040  0.13580  Biso   1.000  H
  H179     1.0000 0.33730  0.52310  0.11230  Biso   1.000  H
  H180     1.0000 0.39630  0.51490  0.08690  Biso   1.000  H
  H181     1.0000 0.07810  0.16270  0.52450  Biso   1.000  H
  H182     1.0000 0.05120  0.13580  0.52040  Biso   1.000  H
  H183     1.0000 0.02730  0.11230  0.52310  Biso   1.000  H
  H184     1.0000 0.00190  0.08690  0.51490  Biso   1.000  H
  H185     1.0000 0.16270  0.07810  0.23470  Biso   1.000  H
  H186     1.0000 0.13580  0.05120  0.29260  Biso   1.000  H
  H187     1.0000 0.11230  0.02730  0.33730  Biso   1.000  H
  H188     1.0000 0.08690  0.00190  0.39630  Biso   1.000  H
  H189     1.0000 0.52450  0.23470  0.07810  Biso   1.000  H
  H190     1.0000 0.52040  0.29260  0.05120  Biso   1.000  H
  H191     1.0000 0.52310  0.33730  0.02730  Biso   1.000  H
  H192     1.0000 0.51490  0.39630  0.00190  Biso   1.000  H
  H193     1.0000 0.53160  0.18440  0.09960  Biso   1.000  H
  H194     1.0000 0.18440  0.53160  0.18440  Biso   1.000  H
  H195     1.0000 0.09960  0.18440  0.53160  Biso   1.000  H
  H196     1.0000 0.18440  0.09960  0.18440  Biso   1.000  H
  H197     1.0000 0.53160  0.09960  0.18440  Biso   1.000  H
  H198     1.0000 0.18440  0.18440  0.09960  Biso   1.000  H
  H199     1.0000 0.09960  0.53160  0.18440  Biso   1.000  H
  H200     1.0000 0.18440  0.18440  0.53160  Biso   1.000  H
  H201     1.0000 0.53160  0.18440  0.18440  Biso   1.000  H
  H202     1.0000 0.18440  0.09960  0.53160  Biso   1.000  H
  H203     1.0000 0.09960  0.18440  0.18440  Biso   1.000  H
  H204     1.0000 0.18440  0.53160  0.09960  Biso   1.000  H
  H205     1.0000 0.81560  0.46840  0.90040  Biso   1.000  H
  H206     1.0000 0.46840  0.81560  0.81560  Biso   1.000  H
  H207     1.0000 0.81560  0.90040  0.46840  Biso   1.000  H
  H208     1.0000 0.90040  0.81560  0.81560  Biso   1.000  H
  H209     1.0000 0.90040  0.46840  0.81560  Biso   1.000  H
  H210     1.0000 0.81560  0.81560  0.90040  Biso   1.000  H
  H211     1.0000 0.46840  0.90040  0.81560  Biso   1.000  H
  H212     1.0000 0.81560  0.81560  0.46840  Biso   1.000  H
  H213     1.0000 0.81560  0.46840  0.81560  Biso   1.000  H
  H214     1.0000 0.90040  0.81560  0.46840  Biso   1.000  H
  H215     1.0000 0.81560  0.90040  0.81560  Biso   1.000  H
  H216     1.0000 0.46840  0.81560  0.90040  Biso   1.000  H
  C1       1.0000 0.52445  0.14055  0.08897  Biso   1.000  C
  C2       1.0000 0.52266  0.12428  0.07252  Biso   1.000  C
  C3       1.0000 0.52188  0.09044  0.03856  Biso   1.000  C
  C4       1.0000 0.51745  0.07497  0.02309  Biso   1.000  C
  C5       1.0000 0.14055  0.52445  0.24603  Biso   1.000  C
  C6       1.0000 0.12428  0.52266  0.28054  Biso   1.000  C
  C7       1.0000 0.09044  0.52188  0.34912  Biso   1.000  C
  C8       1.0000 0.07497  0.51745  0.38449  Biso   1.000  C
  C9       1.0000 0.08897  0.24603  0.52445  Biso   1.000  C
  C10      1.0000 0.07252  0.28054  0.52266  Biso   1.000  C
  C11      1.0000 0.03856  0.34912  0.52188  Biso   1.000  C
  C12      1.0000 0.02309  0.38449  0.51745  Biso   1.000  C
  C13      1.0000 0.24603  0.08897  0.14055  Biso   1.000  C
  C14      1.0000 0.28054  0.07252  0.12428  Biso   1.000  C
  C15      1.0000 0.34912  0.03856  0.09044  Biso   1.000  C
  C16      1.0000 0.38449  0.02309  0.07497  Biso   1.000  C
  C17      1.0000 0.52445  0.08897  0.24603  Biso   1.000  C
  C18      1.0000 0.52266  0.07252  0.28054  Biso   1.000  C
  C19      1.0000 0.52188  0.03856  0.34912  Biso   1.000  C
  C20      1.0000 0.51745  0.02309  0.38449  Biso   1.000  C
  C21      1.0000 0.14055  0.24603  0.08897  Biso   1.000  C
  C22      1.0000 0.12428  0.28054  0.07252  Biso   1.000  C
  C23      1.0000 0.09044  0.34912  0.03856  Biso   1.000  C
  C24      1.0000 0.07497  0.38449  0.02309  Biso   1.000  C
  C25      1.0000 0.08897  0.52445  0.14055  Biso   1.000  C
  C26      1.0000 0.07252  0.52266  0.12428  Biso   1.000  C
  C27      1.0000 0.03856  0.52188  0.09044  Biso   1.000  C
  C28      1.0000 0.02309  0.51745  0.07497  Biso   1.000  C
  C29      1.0000 0.24603  0.14055  0.52445  Biso   1.000  C
  C30      1.0000 0.28054  0.12428  0.52266  Biso   1.000  C
  C31      1.0000 0.34912  0.09044  0.52188  Biso   1.000  C
  C32      1.0000 0.38449  0.07497  0.51745  Biso   1.000  C
  C33      1.0000 0.52445  0.24603  0.14055  Biso   1.000  C
  C34      1.0000 0.52266  0.28054  0.12428  Biso   1.000  C
  C35      1.0000 0.52188  0.34912  0.09044  Biso   1.000  C
  C36      1.0000 0.51745  0.38449  0.07497  Biso   1.000  C
  C37      1.0000 0.14055  0.08897  0.52445  Biso   1.000  C
  C38      1.0000 0.12428  0.07252  0.52266  Biso   1.000  C
  C39      1.0000 0.09044  0.03856  0.52188  Biso   1.000  C
  C40      1.0000 0.07497  0.02309  0.51745  Biso   1.000  C
  C41      1.0000 0.08897  0.14055  0.24603  Biso   1.000  C
  C42      1.0000 0.07252  0.12428  0.28054  Biso   1.000  C
  C43      1.0000 0.03856  0.09044  0.34912  Biso   1.000  C
  C44      1.0000 0.02309  0.07497  0.38449  Biso   1.000  C
  C45      1.0000 0.24603  0.52445  0.08897  Biso   1.000  C
  C46      1.0000 0.28054  0.52266  0.07252  Biso   1.000  C
  C47      1.0000 0.34912  0.52188  0.03856  Biso   1.000  C
  C48      1.0000 0.38449  0.51745  0.02309  Biso   1.000  C
  C49      1.0000 0.85945  0.47555  0.91103  Biso   1.000  C
  C50      1.0000 0.87572  0.47734  0.92748  Biso   1.000  C
  C51      1.0000 0.90956  0.47812  0.96144  Biso   1.000  C
  C52      1.0000 0.92503  0.48255  0.97691  Biso   1.000  C
  C53      1.0000 0.47555  0.85945  0.75397  Biso   1.000  C
  C54      1.0000 0.47734  0.87572  0.71946  Biso   1.000  C
  C55      1.0000 0.47812  0.90956  0.65088  Biso   1.000  C
  C56      1.0000 0.48255  0.92503  0.61551  Biso   1.000  C
  C57      1.0000 0.75397  0.91103  0.47555  Biso   1.000  C
  C58      1.0000 0.71946  0.92748  0.47734  Biso   1.000  C
  C59      1.0000 0.65088  0.96144  0.47812  Biso   1.000  C
  C60      1.0000 0.61551  0.97691  0.48255  Biso   1.000  C
  C61      1.0000 0.91103  0.75397  0.85945  Biso   1.000  C
  C62      1.0000 0.92748  0.71946  0.87572  Biso   1.000  C
  C63      1.0000 0.96144  0.65088  0.90956  Biso   1.000  C
  C64      1.0000 0.97691  0.61551  0.92503  Biso   1.000  C
  C65      1.0000 0.91103  0.47555  0.75397  Biso   1.000  C
  C66      1.0000 0.92748  0.47734  0.71946  Biso   1.000  C
  C67      1.0000 0.96144  0.47812  0.65088  Biso   1.000  C
  C68      1.0000 0.97691  0.48255  0.61551  Biso   1.000  C
  C69      1.0000 0.75397  0.85945  0.91103  Biso   1.000  C
  C70      1.0000 0.71946  0.87572  0.92748  Biso   1.000  C
  C71      1.0000 0.65088  0.90956  0.96144  Biso   1.000  C
  C72      1.0000 0.61551  0.92503  0.97691  Biso   1.000  C
  C73      1.0000 0.47555  0.91103  0.85945  Biso   1.000  C
  C74      1.0000 0.47734  0.92748  0.87572  Biso   1.000  C
  C75      1.0000 0.47812  0.96144  0.90956  Biso   1.000  C
  C76      1.0000 0.48255  0.97691  0.92503  Biso   1.000  C
  C77      1.0000 0.85945  0.75397  0.47555  Biso   1.000  C
  C78      1.0000 0.87572  0.71946  0.47734  Biso   1.000  C
  C79      1.0000 0.90956  0.65088  0.47812  Biso   1.000  C
  C80      1.0000 0.92503  0.61551  0.48255  Biso   1.000  C
  C81      1.0000 0.75397  0.47555  0.85945  Biso   1.000  C
  C82      1.0000 0.71946  0.47734  0.87572  Biso   1.000  C
  C83      1.0000 0.65088  0.47812  0.90956  Biso   1.000  C
  C84      1.0000 0.61551  0.48255  0.92503  Biso   1.000  C
  C85      1.0000 0.91103  0.85945  0.47555  Biso   1.000  C
  C86      1.0000 0.92748  0.87572  0.47734  Biso   1.000  C
  C87      1.0000 0.96144  0.90956  0.47812  Biso   1.000  C
  C88      1.0000 0.97691  0.92503  0.48255  Biso   1.000  C
  C89      1.0000 0.85945  0.91103  0.75397  Biso   1.000  C
  C90      1.0000 0.87572  0.92748  0.71946  Biso   1.000  C
  C91      1.0000 0.90956  0.96144  0.65088  Biso   1.000  C
  C92      1.0000 0.92503  0.97691  0.61551  Biso   1.000  C
  C93      1.0000 0.47555  0.75397  0.91103  Biso   1.000  C
  C94      1.0000 0.47734  0.71946  0.92748  Biso   1.000  C
  C95      1.0000 0.47812  0.65088  0.96144  Biso   1.000  C
  C96      1.0000 0.48255  0.61551  0.97691  Biso   1.000  C
  C97      1.0000 0.47555  0.85945  0.91103  Biso   1.000  C
  C98      1.0000 0.47734  0.87572  0.92748  Biso   1.000  C
  C99      1.0000 0.47812  0.90956  0.96144  Biso   1.000  C
  C100     1.0000 0.48255  0.92503  0.97691  Biso   1.000  C
  C101     1.0000 0.85945  0.47555  0.75397  Biso   1.000  C
  C102     1.0000 0.87572  0.47734  0.71946  Biso   1.000  C
  C103     1.0000 0.90956  0.47812  0.65088  Biso   1.000  C
  C104     1.0000 0.92503  0.48255  0.61551  Biso   1.000  C
  C105     1.0000 0.91103  0.75397  0.47555  Biso   1.000  C
  C106     1.0000 0.92748  0.71946  0.47734  Biso   1.000  C
  C107     1.0000 0.96144  0.65088  0.47812  Biso   1.000  C
  C108     1.0000 0.97691  0.61551  0.48255  Biso   1.000  C
  C109     1.0000 0.75397  0.91103  0.85945  Biso   1.000  C
  C110     1.0000 0.71946  0.92748  0.87572  Biso   1.000  C
  C111     1.0000 0.65088  0.96144  0.90956  Biso   1.000  C
  C112     1.0000 0.61551  0.97691  0.92503  Biso   1.000  C
  C113     1.0000 0.47555  0.91103  0.75397  Biso   1.000  C
  C114     1.0000 0.47734  0.92748  0.71946  Biso   1.000  C
  C115     1.0000 0.47812  0.96144  0.65088  Biso   1.000  C
  C116     1.0000 0.48255  0.97691  0.61551  Biso   1.000  C
  C117     1.0000 0.85945  0.75397  0.91103  Biso   1.000  C
  C118     1.0000 0.87572  0.71946  0.92748  Biso   1.000  C
  C119     1.0000 0.90956  0.65088  0.96144  Biso   1.000  C
  C120     1.0000 0.92503  0.61551  0.97691  Biso   1.000  C
  C121     1.0000 0.91103  0.47555  0.85945  Biso   1.000  C
  C122     1.0000 0.92748  0.47734  0.87572  Biso   1.000  C
  C123     1.0000 0.96144  0.47812  0.90956  Biso   1.000  C
  C124     1.0000 0.97691  0.48255  0.92503  Biso   1.000  C
  C125     1.0000 0.75397  0.85945  0.47555  Biso   1.000  C
  C126     1.0000 0.71946  0.87572  0.47734  Biso   1.000  C
  C127     1.0000 0.65088  0.90956  0.47812  Biso   1.000  C
  C128     1.0000 0.61551  0.92503  0.48255  Biso   1.000  C
  C129     1.0000 0.47555  0.75397  0.85945  Biso   1.000  C
  C130     1.0000 0.47734  0.71946  0.87572  Biso   1.000  C
  C131     1.0000 0.47812  0.65088  0.90956  Biso   1.000  C
  C132     1.0000 0.48255  0.61551  0.92503  Biso   1.000  C
  C133     1.0000 0.85945  0.91103  0.47555  Biso   1.000  C
  C134     1.0000 0.87572  0.92748  0.47734  Biso   1.000  C
  C135     1.0000 0.90956  0.96144  0.47812  Biso   1.000  C
  C136     1.0000 0.92503  0.97691  0.48255  Biso   1.000  C
  C137     1.0000 0.91103  0.85945  0.75397  Biso   1.000  C
  C138     1.0000 0.92748  0.87572  0.71946  Biso   1.000  C
  C139     1.0000 0.96144  0.90956  0.65088  Biso   1.000  C
  C140     1.0000 0.97691  0.92503  0.61551  Biso   1.000  C
  C141     1.0000 0.75397  0.47555  0.91103  Biso   1.000  C
  C142     1.0000 0.71946  0.47734  0.92748  Biso   1.000  C
  C143     1.0000 0.65088  0.47812  0.96144  Biso   1.000  C
  C144     1.0000 0.61551  0.48255  0.97691  Biso   1.000  C
  C145     1.0000 0.14055  0.52445  0.08897  Biso   1.000  C
  C146     1.0000 0.12428  0.52266  0.07252  Biso   1.000  C
  C147     1.0000 0.09044  0.52188  0.03856  Biso   1.000  C
  C148     1.0000 0.07497  0.51745  0.02309  Biso   1.000  C
  C149     1.0000 0.52445  0.14055  0.24603  Biso   1.000  C
  C150     1.0000 0.52266  0.12428  0.28054  Biso   1.000  C
  C151     1.0000 0.52188  0.09044  0.34912  Biso   1.000  C
  C152     1.0000 0.51745  0.07497  0.38449  Biso   1.000  C
  C153     1.0000 0.24603  0.08897  0.52445  Biso   1.000  C
  C154     1.0000 0.28054  0.07252  0.52266  Biso   1.000  C
  C155     1.0000 0.34912  0.03856  0.52188  Biso   1.000  C
  C156     1.0000 0.38449  0.02309  0.51745  Biso   1.000  C
  C157     1.0000 0.08897  0.24603  0.14055  Biso   1.000  C
  C158     1.0000 0.07252  0.28054  0.12428  Biso   1.000  C
  C159     1.0000 0.03856  0.34912  0.09044  Biso   1.000  C
  C160     1.0000 0.02309  0.38449  0.07497  Biso   1.000  C
  C161     1.0000 0.08897  0.52445  0.24603  Biso   1.000  C
  C162     1.0000 0.07252  0.52266  0.28054  Biso   1.000  C
  C163     1.0000 0.03856  0.52188  0.34912  Biso   1.000  C
  C164     1.0000 0.02309  0.51745  0.38449  Biso   1.000  C
  C165     1.0000 0.24603  0.14055  0.08897  Biso   1.000  C
  C166     1.0000 0.28054  0.12428  0.07252  Biso   1.000  C
  C167     1.0000 0.34912  0.09044  0.03856  Biso   1.000  C
  C168     1.0000 0.38449  0.07497  0.02309  Biso   1.000  C
  C169     1.0000 0.52445  0.08897  0.14055  Biso   1.000  C
  C170     1.0000 0.52266  0.07252  0.12428  Biso   1.000  C
  C171     1.0000 0.52188  0.03856  0.09044  Biso   1.000  C
  C172     1.0000 0.51745  0.02309  0.07497  Biso   1.000  C
  C173     1.0000 0.14055  0.24603  0.52445  Biso   1.000  C
  C174     1.0000 0.12428  0.28054  0.52266  Biso   1.000  C
  C175     1.0000 0.09044  0.34912  0.52188  Biso   1.000  C
  C176     1.0000 0.07497  0.38449  0.51745  Biso   1.000  C
  C177     1.0000 0.24603  0.52445  0.14055  Biso   1.000  C
  C178     1.0000 0.28054  0.52266  0.12428  Biso   1.000  C
  C179     1.0000 0.34912  0.52188  0.09044  Biso   1.000  C
  C180     1.0000 0.38449  0.51745  0.07497  Biso   1.000  C
  C181     1.0000 0.08897  0.14055  0.52445  Biso   1.000  C
  C182     1.0000 0.07252  0.12428  0.52266  Biso   1.000  C
  C183     1.0000 0.03856  0.09044  0.52188  Biso   1.000  C
  C184     1.0000 0.02309  0.07497  0.51745  Biso   1.000  C
  C185     1.0000 0.14055  0.08897  0.24603  Biso   1.000  C
  C186     1.0000 0.12428  0.07252  0.28054  Biso   1.000  C
  C187     1.0000 0.09044  0.03856  0.34912  Biso   1.000  C
  C188     1.0000 0.07497  0.02309  0.38449  Biso   1.000  C
  C189     1.0000 0.52445  0.24603  0.08897  Biso   1.000  C
  C190     1.0000 0.52266  0.28054  0.07252  Biso   1.000  C
  C191     1.0000 0.52188  0.34912  0.03856  Biso   1.000  C
  C192     1.0000 0.51745  0.38449  0.02309  Biso   1.000  C
  C193     1.0000 0.53179  0.17323  0.12175  Biso   1.000  C
  C194     1.0000 0.17323  0.53179  0.17323  Biso   1.000  C
  C195     1.0000 0.12175  0.17323  0.53179  Biso   1.000  C
  C196     1.0000 0.17323  0.12175  0.17323  Biso   1.000  C
  C197     1.0000 0.53179  0.12175  0.17323  Biso   1.000  C
  C198     1.0000 0.17323  0.17323  0.12175  Biso   1.000  C
  C199     1.0000 0.12175  0.53179  0.17323  Biso   1.000  C
  C200     1.0000 0.17323  0.17323  0.53179  Biso   1.000  C
  C201     1.0000 0.53179  0.17323  0.17323  Biso   1.000  C
  C202     1.0000 0.17323  0.12175  0.53179  Biso   1.000  C
  C203     1.0000 0.12175  0.17323  0.17323  Biso   1.000  C
  C204     1.0000 0.17323  0.53179  0.12175  Biso   1.000  C
  C205     1.0000 0.82677  0.46821  0.87825  Biso   1.000  C
  C206     1.0000 0.46821  0.82677  0.82677  Biso   1.000  C
  C207     1.0000 0.82677  0.87825  0.46821  Biso   1.000  C
  C208     1.0000 0.87825  0.82677  0.82677  Biso   1.000  C
  C209     1.0000 0.87825  0.46821  0.82677  Biso   1.000  C
  C210     1.0000 0.82677  0.82677  0.87825  Biso   1.000  C
  C211     1.0000 0.46821  0.87825  0.82677  Biso   1.000  C
  C212     1.0000 0.82677  0.82677  0.46821  Biso   1.000  C
  C213     1.0000 0.82677  0.46821  0.82677  Biso   1.000  C
  C214     1.0000 0.87825  0.82677  0.46821  Biso   1.000  C
  C215     1.0000 0.82677  0.87825  0.82677  Biso   1.000  C
  C216     1.0000 0.46821  0.82677  0.87825  Biso   1.000  C
  C217     1.0000 0.53200  0.13880  0.13880  Biso   1.000  C
  C218     1.0000 0.52610  0.12250  0.12250  Biso   1.000  C
  C219     1.0000 0.52440  0.08970  0.08970  Biso   1.000  C
  C220     1.0000 0.52431  0.07159  0.07159  Biso   1.000  C
  C221     1.0000 0.51702  0.04080  0.04080  Biso   1.000  C
  C222     1.0000 0.50972  0.02520  0.02520  Biso   1.000  C
  C223     1.0000 0.13880  0.53200  0.19040  Biso   1.000  C
  C224     1.0000 0.12250  0.52610  0.22890  Biso   1.000  C
  C225     1.0000 0.08970  0.52440  0.29620  Biso   1.000  C
  C226     1.0000 0.07159  0.52431  0.33251  Biso   1.000  C
  C227     1.0000 0.04080  0.51702  0.40138  Biso   1.000  C
  C228     1.0000 0.02520  0.50972  0.43988  Biso   1.000  C
  C229     1.0000 0.13880  0.19040  0.53200  Biso   1.000  C
  C230     1.0000 0.12250  0.22890  0.52610  Biso   1.000  C
  C231     1.0000 0.08970  0.29620  0.52440  Biso   1.000  C
  C232     1.0000 0.07159  0.33251  0.52431  Biso   1.000  C
  C233     1.0000 0.04080  0.40138  0.51702  Biso   1.000  C
  C234     1.0000 0.02520  0.43988  0.50972  Biso   1.000  C
  C235     1.0000 0.19040  0.13880  0.13880  Biso   1.000  C
  C236     1.0000 0.22890  0.12250  0.12250  Biso   1.000  C
  C237     1.0000 0.29620  0.08970  0.08970  Biso   1.000  C
  C238     1.0000 0.33251  0.07159  0.07159  Biso   1.000  C
  C239     1.0000 0.40138  0.04080  0.04080  Biso   1.000  C
  C240     1.0000 0.43988  0.02520  0.02520  Biso   1.000  C
  C241     1.0000 0.53200  0.13880  0.19040  Biso   1.000  C
  C242     1.0000 0.52610  0.12250  0.22890  Biso   1.000  C
  C243     1.0000 0.52440  0.08970  0.29620  Biso   1.000  C
  C244     1.0000 0.52431  0.07159  0.33251  Biso   1.000  C
  C245     1.0000 0.51702  0.04080  0.40138  Biso   1.000  C
  C246     1.0000 0.50972  0.02520  0.43988  Biso   1.000  C
  C247     1.0000 0.13880  0.19040  0.13880  Biso   1.000  C
  C248     1.0000 0.12250  0.22890  0.12250  Biso   1.000  C
  C249     1.0000 0.08970  0.29620  0.08970  Biso   1.000  C
  C250     1.0000 0.07159  0.33251  0.07159  Biso   1.000  C
  C251     1.0000 0.04080  0.40138  0.04080  Biso   1.000  C
  C252     1.0000 0.02520  0.43988  0.02520  Biso   1.000  C
  C253     1.0000 0.13880  0.53200  0.13880  Biso   1.000  C
  C254     1.0000 0.12250  0.52610  0.12250  Biso   1.000  C
  C255     1.0000 0.08970  0.52440  0.08970  Biso   1.000  C
  C256     1.0000 0.07159  0.52431  0.07159  Biso   1.000  C
  C257     1.0000 0.04080  0.51702  0.04080  Biso   1.000  C
  C258     1.0000 0.02520  0.50972  0.02520  Biso   1.000  C
  C259     1.0000 0.19040  0.13880  0.53200  Biso   1.000  C
  C260     1.0000 0.22890  0.12250  0.52610  Biso   1.000  C
  C261     1.0000 0.29620  0.08970  0.52440  Biso   1.000  C
  C262     1.0000 0.33251  0.07159  0.52431  Biso   1.000  C
  C263     1.0000 0.40138  0.04080  0.51702  Biso   1.000  C
  C264     1.0000 0.43988  0.02520  0.50972  Biso   1.000  C
  C265     1.0000 0.53200  0.19040  0.13880  Biso   1.000  C
  C266     1.0000 0.52610  0.22890  0.12250  Biso   1.000  C
  C267     1.0000 0.52440  0.29620  0.08970  Biso   1.000  C
  C268     1.0000 0.52431  0.33251  0.07159  Biso   1.000  C
  C269     1.0000 0.51702  0.40138  0.04080  Biso   1.000  C
  C270     1.0000 0.50972  0.43988  0.02520  Biso   1.000  C
  C271     1.0000 0.13880  0.13880  0.53200  Biso   1.000  C
  C272     1.0000 0.12250  0.12250  0.52610  Biso   1.000  C
  C273     1.0000 0.08970  0.08970  0.52440  Biso   1.000  C
  C274     1.0000 0.07159  0.07159  0.52431  Biso   1.000  C
  C275     1.0000 0.04080  0.04080  0.51702  Biso   1.000  C
  C276     1.0000 0.02520  0.02520  0.50972  Biso   1.000  C
  C277     1.0000 0.13880  0.13880  0.19040  Biso   1.000  C
  C278     1.0000 0.12250  0.12250  0.22890  Biso   1.000  C
  C279     1.0000 0.08970  0.08970  0.29620  Biso   1.000  C
  C280     1.0000 0.07159  0.07159  0.33251  Biso   1.000  C
  C281     1.0000 0.04080  0.04080  0.40138  Biso   1.000  C
  C282     1.0000 0.02520  0.02520  0.43988  Biso   1.000  C
  C283     1.0000 0.19040  0.53200  0.13880  Biso   1.000  C
  C284     1.0000 0.22890  0.52610  0.12250  Biso   1.000  C
  C285     1.0000 0.29620  0.52440  0.08970  Biso   1.000  C
  C286     1.0000 0.33251  0.52431  0.07159  Biso   1.000  C
  C287     1.0000 0.40138  0.51702  0.04080  Biso   1.000  C
  C288     1.0000 0.43988  0.50972  0.02520  Biso   1.000  C
  C289     1.0000 0.86120  0.46800  0.86120  Biso   1.000  C
  C290     1.0000 0.87750  0.47390  0.87750  Biso   1.000  C
  C291     1.0000 0.91030  0.47560  0.91030  Biso   1.000  C
  C292     1.0000 0.92841  0.47569  0.92841  Biso   1.000  C
  C293     1.0000 0.95920  0.48298  0.95920  Biso   1.000  C
  C294     1.0000 0.97480  0.49028  0.97480  Biso   1.000  C
  C295     1.0000 0.46800  0.86120  0.80960  Biso   1.000  C
  C296     1.0000 0.47390  0.87750  0.77110  Biso   1.000  C
  C297     1.0000 0.47560  0.91030  0.70380  Biso   1.000  C
  C298     1.0000 0.47569  0.92841  0.66749  Biso   1.000  C
  C299     1.0000 0.48298  0.95920  0.59862  Biso   1.000  C
  C300     1.0000 0.49028  0.97480  0.56012  Biso   1.000  C
  C301     1.0000 0.80960  0.86120  0.46800  Biso   1.000  C
  C302     1.0000 0.77110  0.87750  0.47390  Biso   1.000  C
  C303     1.0000 0.70380  0.91030  0.47560  Biso   1.000  C
  C304     1.0000 0.66749  0.92841  0.47569  Biso   1.000  C
  C305     1.0000 0.59862  0.95920  0.48298  Biso   1.000  C
  C306     1.0000 0.56012  0.97480  0.49028  Biso   1.000  C
  C307     1.0000 0.86120  0.80960  0.86120  Biso   1.000  C
  C308     1.0000 0.87750  0.77110  0.87750  Biso   1.000  C
  C309     1.0000 0.91030  0.70380  0.91030  Biso   1.000  C
  C310     1.0000 0.92841  0.66749  0.92841  Biso   1.000  C
  C311     1.0000 0.95920  0.59862  0.95920  Biso   1.000  C
  C312     1.0000 0.97480  0.56012  0.97480  Biso   1.000  C
  C313     1.0000 0.86120  0.46800  0.80960  Biso   1.000  C
  C314     1.0000 0.87750  0.47390  0.77110  Biso   1.000  C
  C315     1.0000 0.91030  0.47560  0.70380  Biso   1.000  C
  C316     1.0000 0.92841  0.47569  0.66749  Biso   1.000  C
  C317     1.0000 0.95920  0.48298  0.59862  Biso   1.000  C
  C318     1.0000 0.97480  0.49028  0.56012  Biso   1.000  C
  C319     1.0000 0.80960  0.86120  0.86120  Biso   1.000  C
  C320     1.0000 0.77110  0.87750  0.87750  Biso   1.000  C
  C321     1.0000 0.70380  0.91030  0.91030  Biso   1.000  C
  C322     1.0000 0.66749  0.92841  0.92841  Biso   1.000  C
  C323     1.0000 0.59862  0.95920  0.95920  Biso   1.000  C
  C324     1.0000 0.56012  0.97480  0.97480  Biso   1.000  C
  C325     1.0000 0.46800  0.86120  0.86120  Biso   1.000  C
  C326     1.0000 0.47390  0.87750  0.87750  Biso   1.000  C
  C327     1.0000 0.47560  0.91030  0.91030  Biso   1.000  C
  C328     1.0000 0.47569  0.92841  0.92841  Biso   1.000  C
  C329     1.0000 0.48298  0.95920  0.95920  Biso   1.000  C
  C330     1.0000 0.49028  0.97480  0.97480  Biso   1.000  C
  C331     1.0000 0.86120  0.80960  0.46800  Biso   1.000  C
  C332     1.0000 0.87750  0.77110  0.47390  Biso   1.000  C
  C333     1.0000 0.91030  0.70380  0.47560  Biso   1.000  C
  C334     1.0000 0.92841  0.66749  0.47569  Biso   1.000  C
  C335     1.0000 0.95920  0.59862  0.48298  Biso   1.000  C
  C336     1.0000 0.97480  0.56012  0.49028  Biso   1.000  C
  C337     1.0000 0.80960  0.46800  0.86120  Biso   1.000  C
  C338     1.0000 0.77110  0.47390  0.87750  Biso   1.000  C
  C339     1.0000 0.70380  0.47560  0.91030  Biso   1.000  C
  C340     1.0000 0.66749  0.47569  0.92841  Biso   1.000  C
  C341     1.0000 0.59862  0.48298  0.95920  Biso   1.000  C
  C342     1.0000 0.56012  0.49028  0.97480  Biso   1.000  C
  C343     1.0000 0.86120  0.86120  0.46800  Biso   1.000  C
  C344     1.0000 0.87750  0.87750  0.47390  Biso   1.000  C
  C345     1.0000 0.91030  0.91030  0.47560  Biso   1.000  C
  C346     1.0000 0.92841  0.92841  0.47569  Biso   1.000  C
  C347     1.0000 0.95920  0.95920  0.48298  Biso   1.000  C
  C348     1.0000 0.97480  0.97480  0.49028  Biso   1.000  C
  C349     1.0000 0.86120  0.86120  0.80960  Biso   1.000  C
  C350     1.0000 0.87750  0.87750  0.77110  Biso   1.000  C
  C351     1.0000 0.91030  0.91030  0.70380  Biso   1.000  C
  C352     1.0000 0.92841  0.92841  0.66749  Biso   1.000  C
  C353     1.0000 0.95920  0.95920  0.59862  Biso   1.000  C
  C354     1.0000 0.97480  0.97480  0.56012  Biso   1.000  C
  C355     1.0000 0.46800  0.80960  0.86120  Biso   1.000  C
  C356     1.0000 0.47390  0.77110  0.87750  Biso   1.000  C
  C357     1.0000 0.47560  0.70380  0.91030  Biso   1.000  C
  C358     1.0000 0.47569  0.66749  0.92841  Biso   1.000  C
  C359     1.0000 0.48298  0.59862  0.95920  Biso   1.000  C
  C360     1.0000 0.49028  0.56012  0.97480  Biso   1.000  C
  O1       1.0000 0.50861  0.04285  0.99603  Biso   1.000  O
  O2       1.0000 0.04285  0.50861  0.45251  Biso   1.000  O
  O3       1.0000 0.99603  0.45251  0.50861  Biso   1.000  O
  O4       1.0000 0.45251  0.99603  0.04285  Biso   1.000  O
  O5       1.0000 0.50861  0.99603  0.45251  Biso   1.000  O
  O6       1.0000 0.04285  0.45251  0.99603  Biso   1.000  O
  O7       1.0000 0.99603  0.50861  0.04285  Biso   1.000  O
  O8       1.0000 0.45251  0.04285  0.50861  Biso   1.000  O
  O9       1.0000 0.50861  0.45251  0.04285  Biso   1.000  O
  O10      1.0000 0.04285  0.99603  0.50861  Biso   1.000  O
  O11      1.0000 0.99603  0.04285  0.45251  Biso   1.000  O
  O12      1.0000 0.45251  0.50861  0.99603  Biso   1.000  O
  O13      1.0000 0.95715  0.49139  0.00397  Biso   1.000  O
  O14      1.0000 0.49139  0.95715  0.54749  Biso   1.000  O
  O15      1.0000 0.54749  0.00397  0.49139  Biso   1.000  O
  O16      1.0000 0.00397  0.54749  0.95715  Biso   1.000  O
  O17      1.0000 0.00397  0.49139  0.54749  Biso   1.000  O
  O18      1.0000 0.54749  0.95715  0.00397  Biso   1.000  O
  O19      1.0000 0.49139  0.00397  0.95715  Biso   1.000  O
  O20      1.0000 0.95715  0.54749  0.49139  Biso   1.000  O
  O21      1.0000 0.54749  0.49139  0.95715  Biso   1.000  O
  O22      1.0000 0.00397  0.95715  0.49139  Biso   1.000  O
  O23      1.0000 0.95715  0.00397  0.54749  Biso   1.000  O
  O24      1.0000 0.49139  0.54749  0.00397  Biso   1.000  O
  O25      1.0000 0.49139  0.95715  0.00397  Biso   1.000  O
  O26      1.0000 0.95715  0.49139  0.54749  Biso   1.000  O
  O27      1.0000 0.00397  0.54749  0.49139  Biso   1.000  O
  O28      1.0000 0.54749  0.00397  0.95715  Biso   1.000  O
  O29      1.0000 0.49139  0.00397  0.54749  Biso   1.000  O
  O30      1.0000 0.95715  0.54749  0.00397  Biso   1.000  O
  O31      1.0000 0.00397  0.49139  0.95715  Biso   1.000  O
  O32      1.0000 0.54749  0.95715  0.49139  Biso   1.000  O
  O33      1.0000 0.49139  0.54749  0.95715  Biso   1.000  O
  O34      1.0000 0.95715  0.00397  0.49139  Biso   1.000  O
  O35      1.0000 0.00397  0.95715  0.54749  Biso   1.000  O
  O36      1.0000 0.54749  0.49139  0.00397  Biso   1.000  O
  O37      1.0000 0.04285  0.50861  0.99603  Biso   1.000  O
  O38      1.0000 0.50861  0.04285  0.45251  Biso   1.000  O
  O39      1.0000 0.45251  0.99603  0.50861  Biso   1.000  O
  O40      1.0000 0.99603  0.45251  0.04285  Biso   1.000  O
  O41      1.0000 0.99603  0.50861  0.45251  Biso   1.000  O
  O42      1.0000 0.45251  0.04285  0.99603  Biso   1.000  O
  O43      1.0000 0.50861  0.99603  0.04285  Biso   1.000  O
  O44      1.0000 0.04285  0.45251  0.50861  Biso   1.000  O
  O45      1.0000 0.45251  0.50861  0.04285  Biso   1.000  O
  O46      1.0000 0.99603  0.04285  0.50861  Biso   1.000  O
  O47      1.0000 0.04285  0.99603  0.45251  Biso   1.000  O
  O48      1.0000 0.50861  0.45251  0.99603  Biso   1.000  O
  Cu13     1.0000 0.67362  0.14753  0.20284  Biso   1.000  Cu
  Cu14     1.0000 0.20090  0.67481  0.67556  Biso   1.000  Cu
  Cu15     1.0000 0.14634  0.67481  0.67556  Biso   1.000  Cu
  Cu16     1.0000 0.67362  0.20209  0.14828  Biso   1.000  Cu
  Cu17     1.0000 0.14634  0.20209  0.67556  Biso   1.000  Cu
  Cu18     1.0000 0.67362  0.67481  0.20284  Biso   1.000  Cu
  Cu19     1.0000 0.67362  0.67481  0.14828  Biso   1.000  Cu
  Cu20     1.0000 0.20090  0.14753  0.67556  Biso   1.000  Cu
  Cu21     1.0000 0.20090  0.67481  0.14828  Biso   1.000  Cu
  Cu22     1.0000 0.67362  0.20209  0.67556  Biso   1.000  Cu
  Cu23     1.0000 0.67362  0.14753  0.67556  Biso   1.000  Cu
  Cu24     1.0000 0.14634  0.67481  0.20284  Biso   1.000  Cu
  H217     1.0000 0.93892  0.01211  0.09746  Biso   1.000  H
  H218     1.0000 0.88102  0.03901  0.12436  Biso   1.000  H
  H219     1.0000 0.83632  0.06251  0.14826  Biso   1.000  H
  H220     1.0000 0.77732  0.08791  0.17366  Biso   1.000  H
  H221     1.0000 0.09552  0.65031  0.94086  Biso   1.000  H
  H222     1.0000 0.12242  0.65441  0.88296  Biso   1.000  H
  H223     1.0000 0.14632  0.65171  0.83826  Biso   1.000  H
  H224     1.0000 0.17172  0.65991  0.77926  Biso   1.000  H
  H225     1.0000 0.01092  0.94011  0.65106  Biso   1.000  H
  H226     1.0000 0.03782  0.88221  0.65516  Biso   1.000  H
  H227     1.0000 0.06132  0.83751  0.65246  Biso   1.000  H
  H228     1.0000 0.08672  0.77851  0.66066  Biso   1.000  H
  H229     1.0000 0.64912  0.09671  0.01286  Biso   1.000  H
  H230     1.0000 0.65322  0.12361  0.03976  Biso   1.000  H
  H231     1.0000 0.65052  0.14751  0.06326  Biso   1.000  H
  H232     1.0000 0.65872  0.17291  0.08866  Biso   1.000  H
  H233     1.0000 0.01092  0.09671  0.94086  Biso   1.000  H
  H234     1.0000 0.03782  0.12361  0.88296  Biso   1.000  H
  H235     1.0000 0.06132  0.14751  0.83826  Biso   1.000  H
  H236     1.0000 0.08672  0.17291  0.77926  Biso   1.000  H
  H237     1.0000 0.64912  0.94011  0.09746  Biso   1.000  H
  H238     1.0000 0.65322  0.88221  0.12436  Biso   1.000  H
  H239     1.0000 0.65052  0.83751  0.14826  Biso   1.000  H
  H240     1.0000 0.65872  0.77851  0.17366  Biso   1.000  H
  H241     1.0000 0.93892  0.65031  0.01286  Biso   1.000  H
  H242     1.0000 0.88102  0.65441  0.03976  Biso   1.000  H
  H243     1.0000 0.83632  0.65171  0.06326  Biso   1.000  H
  H244     1.0000 0.77732  0.65991  0.08866  Biso   1.000  H
  H245     1.0000 0.09552  0.01211  0.65106  Biso   1.000  H
  H246     1.0000 0.12242  0.03901  0.65516  Biso   1.000  H
  H247     1.0000 0.14632  0.06251  0.65246  Biso   1.000  H
  H248     1.0000 0.17172  0.08791  0.66066  Biso   1.000  H
  H249     1.0000 0.09552  0.94011  0.01286  Biso   1.000  H
  H250     1.0000 0.12242  0.88221  0.03976  Biso   1.000  H
  H251     1.0000 0.14632  0.83751  0.06326  Biso   1.000  H
  H252     1.0000 0.17172  0.77851  0.08866  Biso   1.000  H
  H253     1.0000 0.93892  0.09671  0.65106  Biso   1.000  H
  H254     1.0000 0.88102  0.12361  0.65516  Biso   1.000  H
  H255     1.0000 0.83632  0.14751  0.65246  Biso   1.000  H
  H256     1.0000 0.77732  0.17291  0.66066  Biso   1.000  H
  H257     1.0000 0.64912  0.01211  0.94086  Biso   1.000  H
  H258     1.0000 0.65322  0.03901  0.88296  Biso   1.000  H
  H259     1.0000 0.65052  0.06251  0.83826  Biso   1.000  H
  H260     1.0000 0.65872  0.08791  0.77926  Biso   1.000  H
  H261     1.0000 0.01092  0.65031  0.09746  Biso   1.000  H
  H262     1.0000 0.03782  0.65441  0.12436  Biso   1.000  H
  H263     1.0000 0.06132  0.65171  0.14826  Biso   1.000  H
  H264     1.0000 0.08672  0.65991  0.17366  Biso   1.000  H
  H265     1.0000 0.40832  0.69931  0.25366  Biso   1.000  H
  H266     1.0000 0.46622  0.69521  0.22676  Biso   1.000  H
  H267     1.0000 0.51092  0.69791  0.20286  Biso   1.000  H
  H268     1.0000 0.56992  0.68971  0.17746  Biso   1.000  H
  H269     1.0000 0.25172  0.33751  0.41026  Biso   1.000  H
  H270     1.0000 0.22482  0.31061  0.46816  Biso   1.000  H
  H271     1.0000 0.20092  0.28711  0.51286  Biso   1.000  H
  H272     1.0000 0.17552  0.26171  0.57186  Biso   1.000  H
  H273     1.0000 0.33632  0.25291  0.70006  Biso   1.000  H
  H274     1.0000 0.30942  0.22601  0.69596  Biso   1.000  H
  H275     1.0000 0.28592  0.20211  0.69866  Biso   1.000  H
  H276     1.0000 0.26052  0.17671  0.69046  Biso   1.000  H
  H277     1.0000 0.69812  0.40951  0.33826  Biso   1.000  H
  H278     1.0000 0.69402  0.46741  0.31136  Biso   1.000  H
  H279     1.0000 0.69672  0.51211  0.28786  Biso   1.000  H
  H280     1.0000 0.68852  0.57111  0.26246  Biso   1.000  H
  H281     1.0000 0.33632  0.69931  0.41026  Biso   1.000  H
  H282     1.0000 0.30942  0.69521  0.46816  Biso   1.000  H
  H283     1.0000 0.28592  0.69791  0.51286  Biso   1.000  H
  H284     1.0000 0.26052  0.68971  0.57186  Biso   1.000  H
  H285     1.0000 0.69812  0.33751  0.25366  Biso   1.000  H
  H286     1.0000 0.69402  0.31061  0.22676  Biso   1.000  H
  H287     1.0000 0.69672  0.28711  0.20286  Biso   1.000  H
  H288     1.0000 0.68852  0.26171  0.17746  Biso   1.000  H
  H289     1.0000 0.40832  0.25291  0.33826  Biso   1.000  H
  H290     1.0000 0.46622  0.22601  0.31136  Biso   1.000  H
  H291     1.0000 0.51092  0.20211  0.28786  Biso   1.000  H
  H292     1.0000 0.56992  0.17671  0.26246  Biso   1.000  H
  H293     1.0000 0.25172  0.40951  0.70006  Biso   1.000  H
  H294     1.0000 0.22482  0.46741  0.69596  Biso   1.000  H
  H295     1.0000 0.20092  0.51211  0.69866  Biso   1.000  H
  H296     1.0000 0.17552  0.57111  0.69046  Biso   1.000  H
  H297     1.0000 0.25172  0.69931  0.33826  Biso   1.000  H
  H298     1.0000 0.22482  0.69521  0.31136  Biso   1.000  H
  H299     1.0000 0.20092  0.69791  0.28786  Biso   1.000  H
  H300     1.0000 0.17552  0.68971  0.26246  Biso   1.000  H
  H301     1.0000 0.40832  0.33751  0.70006  Biso   1.000  H
  H302     1.0000 0.46622  0.31061  0.69596  Biso   1.000  H
  H303     1.0000 0.51092  0.28711  0.69866  Biso   1.000  H
  H304     1.0000 0.56992  0.26171  0.69046  Biso   1.000  H
  H305     1.0000 0.69812  0.25291  0.41026  Biso   1.000  H
  H306     1.0000 0.69402  0.22601  0.46816  Biso   1.000  H
  H307     1.0000 0.69672  0.20211  0.51286  Biso   1.000  H
  H308     1.0000 0.68852  0.17671  0.57186  Biso   1.000  H
  H309     1.0000 0.33632  0.40951  0.25366  Biso   1.000  H
  H310     1.0000 0.30942  0.46741  0.22676  Biso   1.000  H
  H311     1.0000 0.28592  0.51211  0.20286  Biso   1.000  H
  H312     1.0000 0.26052  0.57111  0.17746  Biso   1.000  H
  H313     1.0000 0.40832  0.33751  0.25366  Biso   1.000  H
  H314     1.0000 0.46622  0.31061  0.22676  Biso   1.000  H
  H315     1.0000 0.51092  0.28711  0.20286  Biso   1.000  H
  H316     1.0000 0.56992  0.26171  0.17746  Biso   1.000  H
  H317     1.0000 0.25172  0.69931  0.41026  Biso   1.000  H
  H318     1.0000 0.22482  0.69521  0.46816  Biso   1.000  H
  H319     1.0000 0.20092  0.69791  0.51286  Biso   1.000  H
  H320     1.0000 0.17552  0.68971  0.57186  Biso   1.000  H
  H321     1.0000 0.33632  0.40951  0.70006  Biso   1.000  H
  H322     1.0000 0.30942  0.46741  0.69596  Biso   1.000  H
  H323     1.0000 0.28592  0.51211  0.69866  Biso   1.000  H
  H324     1.0000 0.26052  0.57111  0.69046  Biso   1.000  H
  H325     1.0000 0.69812  0.25291  0.33826  Biso   1.000  H
  H326     1.0000 0.69402  0.22601  0.31136  Biso   1.000  H
  H327     1.0000 0.69672  0.20211  0.28786  Biso   1.000  H
  H328     1.0000 0.68852  0.17671  0.26246  Biso   1.000  H
  H329     1.0000 0.33632  0.25291  0.41026  Biso   1.000  H
  H330     1.0000 0.30942  0.22601  0.46816  Biso   1.000  H
  H331     1.0000 0.28592  0.20211  0.51286  Biso   1.000  H
  H332     1.0000 0.26052  0.17671  0.57186  Biso   1.000  H
  H333     1.0000 0.69812  0.40951  0.25366  Biso   1.000  H
  H334     1.0000 0.69402  0.46741  0.22676  Biso   1.000  H
  H335     1.0000 0.69672  0.51211  0.20286  Biso   1.000  H
  H336     1.0000 0.68852  0.57111  0.17746  Biso   1.000  H
  H337     1.0000 0.40832  0.69931  0.33826  Biso   1.000  H
  H338     1.0000 0.46622  0.69521  0.31136  Biso   1.000  H
  H339     1.0000 0.51092  0.69791  0.28786  Biso   1.000  H
  H340     1.0000 0.56992  0.68971  0.26246  Biso   1.000  H
  H341     1.0000 0.25172  0.33751  0.70006  Biso   1.000  H
  H342     1.0000 0.22482  0.31061  0.69596  Biso   1.000  H
  H343     1.0000 0.20092  0.28711  0.69866  Biso   1.000  H
  H344     1.0000 0.17552  0.26171  0.69046  Biso   1.000  H
  H345     1.0000 0.25172  0.40951  0.33826  Biso   1.000  H
  H346     1.0000 0.22482  0.46741  0.31136  Biso   1.000  H
  H347     1.0000 0.20092  0.51211  0.28786  Biso   1.000  H
  H348     1.0000 0.17552  0.57111  0.26246  Biso   1.000  H
  H349     1.0000 0.40832  0.25291  0.70006  Biso   1.000  H
  H350     1.0000 0.46622  0.22601  0.69596  Biso   1.000  H
  H351     1.0000 0.51092  0.20211  0.69866  Biso   1.000  H
  H352     1.0000 0.56992  0.17671  0.69046  Biso   1.000  H
  H353     1.0000 0.69812  0.33751  0.41026  Biso   1.000  H
  H354     1.0000 0.69402  0.31061  0.46816  Biso   1.000  H
  H355     1.0000 0.69672  0.28711  0.51286  Biso   1.000  H
  H356     1.0000 0.68852  0.26171  0.57186  Biso   1.000  H
  H357     1.0000 0.33632  0.69931  0.25366  Biso   1.000  H
  H358     1.0000 0.30942  0.69521  0.22676  Biso   1.000  H
  H359     1.0000 0.28592  0.69791  0.20286  Biso   1.000  H
  H360     1.0000 0.26052  0.68971  0.17746  Biso   1.000  H
  H361     1.0000 0.93892  0.65031  0.09746  Biso   1.000  H
  H362     1.0000 0.88102  0.65441  0.12436  Biso   1.000  H
  H363     1.0000 0.83632  0.65171  0.14826  Biso   1.000  H
  H364     1.0000 0.77732  0.65991  0.17366  Biso   1.000  H
  H365     1.0000 0.09552  0.01211  0.94086  Biso   1.000  H
  H366     1.0000 0.12242  0.03901  0.88296  Biso   1.000  H
  H367     1.0000 0.14632  0.06251  0.83826  Biso   1.000  H
  H368     1.0000 0.17172  0.08791  0.77926  Biso   1.000  H
  H369     1.0000 0.01092  0.09671  0.65106  Biso   1.000  H
  H370     1.0000 0.03782  0.12361  0.65516  Biso   1.000  H
  H371     1.0000 0.06132  0.14751  0.65246  Biso   1.000  H
  H372     1.0000 0.08672  0.17291  0.66066  Biso   1.000  H
  H373     1.0000 0.64912  0.94011  0.01286  Biso   1.000  H
  H374     1.0000 0.65322  0.88221  0.03976  Biso   1.000  H
  H375     1.0000 0.65052  0.83751  0.06326  Biso   1.000  H
  H376     1.0000 0.65872  0.77851  0.08866  Biso   1.000  H
  H377     1.0000 0.01092  0.65031  0.94086  Biso   1.000  H
  H378     1.0000 0.03782  0.65441  0.88296  Biso   1.000  H
  H379     1.0000 0.06132  0.65171  0.83826  Biso   1.000  H
  H380     1.0000 0.08672  0.65991  0.77926  Biso   1.000  H
  H381     1.0000 0.64912  0.01211  0.09746  Biso   1.000  H
  H382     1.0000 0.65322  0.03901  0.12436  Biso   1.000  H
  H383     1.0000 0.65052  0.06251  0.14826  Biso   1.000  H
  H384     1.0000 0.65872  0.08791  0.17366  Biso   1.000  H
  H385     1.0000 0.93892  0.09671  0.01286  Biso   1.000  H
  H386     1.0000 0.88102  0.12361  0.03976  Biso   1.000  H
  H387     1.0000 0.83632  0.14751  0.06326  Biso   1.000  H
  H388     1.0000 0.77732  0.17291  0.08866  Biso   1.000  H
  H389     1.0000 0.09552  0.94011  0.65106  Biso   1.000  H
  H390     1.0000 0.12242  0.88221  0.65516  Biso   1.000  H
  H391     1.0000 0.14632  0.83751  0.65246  Biso   1.000  H
  H392     1.0000 0.17172  0.77851  0.66066  Biso   1.000  H
  H393     1.0000 0.09552  0.65031  0.01286  Biso   1.000  H
  H394     1.0000 0.12242  0.65441  0.03976  Biso   1.000  H
  H395     1.0000 0.14632  0.65171  0.06326  Biso   1.000  H
  H396     1.0000 0.17172  0.65991  0.08866  Biso   1.000  H
  H397     1.0000 0.93892  0.01211  0.65106  Biso   1.000  H
  H398     1.0000 0.88102  0.03901  0.65516  Biso   1.000  H
  H399     1.0000 0.83632  0.06251  0.65246  Biso   1.000  H
  H400     1.0000 0.77732  0.08791  0.66066  Biso   1.000  H
  H401     1.0000 0.64912  0.09671  0.94086  Biso   1.000  H
  H402     1.0000 0.65322  0.12361  0.88296  Biso   1.000  H
  H403     1.0000 0.65052  0.14751  0.83826  Biso   1.000  H
  H404     1.0000 0.65872  0.17291  0.77926  Biso   1.000  H
  H405     1.0000 0.01092  0.94011  0.09746  Biso   1.000  H
  H406     1.0000 0.03782  0.88221  0.12436  Biso   1.000  H
  H407     1.0000 0.06132  0.83751  0.14826  Biso   1.000  H
  H408     1.0000 0.08672  0.77851  0.17366  Biso   1.000  H
  H409     1.0000 0.98922  0.99041  0.07596  Biso   1.000  H
  H410     1.0000 0.07402  0.64321  0.99116  Biso   1.000  H
  H411     1.0000 0.98922  0.99041  0.64396  Biso   1.000  H
  H412     1.0000 0.64202  0.07521  0.99116  Biso   1.000  H
  H413     1.0000 0.98922  0.07521  0.99116  Biso   1.000  H
  H414     1.0000 0.64202  0.99041  0.07596  Biso   1.000  H
  H415     1.0000 0.98922  0.64321  0.99116  Biso   1.000  H
  H416     1.0000 0.07402  0.99041  0.64396  Biso   1.000  H
  H417     1.0000 0.07402  0.99041  0.99116  Biso   1.000  H
  H418     1.0000 0.98922  0.07521  0.64396  Biso   1.000  H
  H419     1.0000 0.64202  0.99041  0.99116  Biso   1.000  H
  H420     1.0000 0.98922  0.64321  0.07596  Biso   1.000  H
  H421     1.0000 0.35802  0.70641  0.27516  Biso   1.000  H
  H422     1.0000 0.27322  0.35921  0.35996  Biso   1.000  H
  H423     1.0000 0.35802  0.27441  0.70716  Biso   1.000  H
  H424     1.0000 0.70522  0.35921  0.35996  Biso   1.000  H
  H425     1.0000 0.35802  0.70641  0.35996  Biso   1.000  H
  H426     1.0000 0.70522  0.35921  0.27516  Biso   1.000  H
  H427     1.0000 0.35802  0.27441  0.35996  Biso   1.000  H
  H428     1.0000 0.27322  0.35921  0.70716  Biso   1.000  H
  H429     1.0000 0.27322  0.70641  0.35996  Biso   1.000  H
  H430     1.0000 0.35802  0.35921  0.70716  Biso   1.000  H
  H431     1.0000 0.70522  0.27441  0.35996  Biso   1.000  H
  H432     1.0000 0.35802  0.35921  0.27516  Biso   1.000  H
  C361     1.0000 0.92759  0.03426  0.08659  Biso   1.000  C
  C362     1.0000 0.89308  0.05053  0.10304  Biso   1.000  C
  C363     1.0000 0.82450  0.08437  0.13700  Biso   1.000  C
  C364     1.0000 0.78913  0.09984  0.15247  Biso   1.000  C
  C365     1.0000 0.08465  0.65036  0.92953  Biso   1.000  C
  C366     1.0000 0.10110  0.65215  0.89502  Biso   1.000  C
  C367     1.0000 0.13506  0.65293  0.82644  Biso   1.000  C
  C368     1.0000 0.15053  0.65736  0.79107  Biso   1.000  C
  C369     1.0000 0.03307  0.92878  0.65111  Biso   1.000  C
  C370     1.0000 0.04934  0.89427  0.65290  Biso   1.000  C
  C371     1.0000 0.08318  0.82569  0.65368  Biso   1.000  C
  C372     1.0000 0.09865  0.79032  0.65811  Biso   1.000  C
  C373     1.0000 0.64917  0.08584  0.03501  Biso   1.000  C
  C374     1.0000 0.65096  0.10229  0.05128  Biso   1.000  C
  C375     1.0000 0.65174  0.13625  0.08512  Biso   1.000  C
  C376     1.0000 0.65617  0.15172  0.10059  Biso   1.000  C
  C377     1.0000 0.03307  0.08584  0.92953  Biso   1.000  C
  C378     1.0000 0.04934  0.10229  0.89502  Biso   1.000  C
  C379     1.0000 0.08318  0.13625  0.82644  Biso   1.000  C
  C380     1.0000 0.09865  0.15172  0.79107  Biso   1.000  C
  C381     1.0000 0.64917  0.92878  0.08659  Biso   1.000  C
  C382     1.0000 0.65096  0.89427  0.10304  Biso   1.000  C
  C383     1.0000 0.65174  0.82569  0.13700  Biso   1.000  C
  C384     1.0000 0.65617  0.79032  0.15247  Biso   1.000  C
  C385     1.0000 0.92759  0.65036  0.03501  Biso   1.000  C
  C386     1.0000 0.89308  0.65215  0.05128  Biso   1.000  C
  C387     1.0000 0.82450  0.65293  0.08512  Biso   1.000  C
  C388     1.0000 0.78913  0.65736  0.10059  Biso   1.000  C
  C389     1.0000 0.08465  0.03426  0.65111  Biso   1.000  C
  C390     1.0000 0.10110  0.05053  0.65290  Biso   1.000  C
  C391     1.0000 0.13506  0.08437  0.65368  Biso   1.000  C
  C392     1.0000 0.15053  0.09984  0.65811  Biso   1.000  C
  C393     1.0000 0.08465  0.92878  0.03501  Biso   1.000  C
  C394     1.0000 0.10110  0.89427  0.05128  Biso   1.000  C
  C395     1.0000 0.13506  0.82569  0.08512  Biso   1.000  C
  C396     1.0000 0.15053  0.79032  0.10059  Biso   1.000  C
  C397     1.0000 0.92759  0.08584  0.65111  Biso   1.000  C
  C398     1.0000 0.89308  0.10229  0.65290  Biso   1.000  C
  C399     1.0000 0.82450  0.13625  0.65368  Biso   1.000  C
  C400     1.0000 0.78913  0.15172  0.65811  Biso   1.000  C
  C401     1.0000 0.64917  0.03426  0.92953  Biso   1.000  C
  C402     1.0000 0.65096  0.05053  0.89502  Biso   1.000  C
  C403     1.0000 0.65174  0.08437  0.82644  Biso   1.000  C
  C404     1.0000 0.65617  0.09984  0.79107  Biso   1.000  C
  C405     1.0000 0.03307  0.65036  0.08659  Biso   1.000  C
  C406     1.0000 0.04934  0.65215  0.10304  Biso   1.000  C
  C407     1.0000 0.08318  0.65293  0.13700  Biso   1.000  C
  C408     1.0000 0.09865  0.65736  0.15247  Biso   1.000  C
  C409     1.0000 0.41965  0.69926  0.26453  Biso   1.000  C
  C410     1.0000 0.45416  0.69747  0.24808  Biso   1.000  C
  C411     1.0000 0.52274  0.69669  0.21412  Biso   1.000  C
  C412     1.0000 0.55811  0.69226  0.19865  Biso   1.000  C
  C413     1.0000 0.26259  0.31536  0.42159  Biso   1.000  C
  C414     1.0000 0.24614  0.29909  0.45610  Biso   1.000  C
  C415     1.0000 0.21218  0.26525  0.52468  Biso   1.000  C
  C416     1.0000 0.19671  0.24978  0.56005  Biso   1.000  C
  C417     1.0000 0.31417  0.26378  0.70001  Biso   1.000  C
  C418     1.0000 0.29790  0.24733  0.69822  Biso   1.000  C
  C419     1.0000 0.26406  0.21337  0.69744  Biso   1.000  C
  C420     1.0000 0.24859  0.19790  0.69301  Biso   1.000  C
  C421     1.0000 0.69807  0.42084  0.31611  Biso   1.000  C
  C422     1.0000 0.69628  0.45535  0.29984  Biso   1.000  C
  C423     1.0000 0.69550  0.52393  0.26600  Biso   1.000  C
  C424     1.0000 0.69107  0.55930  0.25053  Biso   1.000  C
  C425     1.0000 0.31417  0.69926  0.42159  Biso   1.000  C
  C426     1.0000 0.29790  0.69747  0.45610  Biso   1.000  C
  C427     1.0000 0.26406  0.69669  0.52468  Biso   1.000  C
  C428     1.0000 0.24859  0.69226  0.56005  Biso   1.000  C
  C429     1.0000 0.69807  0.31536  0.26453  Biso   1.000  C
  C430     1.0000 0.69628  0.29909  0.24808  Biso   1.000  C
  C431     1.0000 0.69550  0.26525  0.21412  Biso   1.000  C
  C432     1.0000 0.69107  0.24978  0.19865  Biso   1.000  C
  C433     1.0000 0.41965  0.26378  0.31611  Biso   1.000  C
  C434     1.0000 0.45416  0.24733  0.29984  Biso   1.000  C
  C435     1.0000 0.52274  0.21337  0.26600  Biso   1.000  C
  C436     1.0000 0.55811  0.19790  0.25053  Biso   1.000  C
  C437     1.0000 0.26259  0.42084  0.70001  Biso   1.000  C
  C438     1.0000 0.24614  0.45535  0.69822  Biso   1.000  C
  C439     1.0000 0.21218  0.52393  0.69744  Biso   1.000  C
  C440     1.0000 0.19671  0.55930  0.69301  Biso   1.000  C
  C441     1.0000 0.26259  0.69926  0.31611  Biso   1.000  C
  C442     1.0000 0.24614  0.69747  0.29984  Biso   1.000  C
  C443     1.0000 0.21218  0.69669  0.26600  Biso   1.000  C
  C444     1.0000 0.19671  0.69226  0.25053  Biso   1.000  C
  C445     1.0000 0.41965  0.31536  0.70001  Biso   1.000  C
  C446     1.0000 0.45416  0.29909  0.69822  Biso   1.000  C
  C447     1.0000 0.52274  0.26525  0.69744  Biso   1.000  C
  C448     1.0000 0.55811  0.24978  0.69301  Biso   1.000  C
  C449     1.0000 0.69807  0.26378  0.42159  Biso   1.000  C
  C450     1.0000 0.69628  0.24733  0.45610  Biso   1.000  C
  C451     1.0000 0.69550  0.21337  0.52468  Biso   1.000  C
  C452     1.0000 0.69107  0.19790  0.56005  Biso   1.000  C
  C453     1.0000 0.31417  0.42084  0.26453  Biso   1.000  C
  C454     1.0000 0.29790  0.45535  0.24808  Biso   1.000  C
  C455     1.0000 0.26406  0.52393  0.21412  Biso   1.000  C
  C456     1.0000 0.24859  0.55930  0.19865  Biso   1.000  C
  C457     1.0000 0.41965  0.31536  0.26453  Biso   1.000  C
  C458     1.0000 0.45416  0.29909  0.24808  Biso   1.000  C
  C459     1.0000 0.52274  0.26525  0.21412  Biso   1.000  C
  C460     1.0000 0.55811  0.24978  0.19865  Biso   1.000  C
  C461     1.0000 0.26259  0.69926  0.42159  Biso   1.000  C
  C462     1.0000 0.24614  0.69747  0.45610  Biso   1.000  C
  C463     1.0000 0.21218  0.69669  0.52468  Biso   1.000  C
  C464     1.0000 0.19671  0.69226  0.56005  Biso   1.000  C
  C465     1.0000 0.31417  0.42084  0.70001  Biso   1.000  C
  C466     1.0000 0.29790  0.45535  0.69822  Biso   1.000  C
  C467     1.0000 0.26406  0.52393  0.69744  Biso   1.000  C
  C468     1.0000 0.24859  0.55930  0.69301  Biso   1.000  C
  C469     1.0000 0.69807  0.26378  0.31611  Biso   1.000  C
  C470     1.0000 0.69628  0.24733  0.29984  Biso   1.000  C
  C471     1.0000 0.69550  0.21337  0.26600  Biso   1.000  C
  C472     1.0000 0.69107  0.19790  0.25053  Biso   1.000  C
  C473     1.0000 0.31417  0.26378  0.42159  Biso   1.000  C
  C474     1.0000 0.29790  0.24733  0.45610  Biso   1.000  C
  C475     1.0000 0.26406  0.21337  0.52468  Biso   1.000  C
  C476     1.0000 0.24859  0.19790  0.56005  Biso   1.000  C
  C477     1.0000 0.69807  0.42084  0.26453  Biso   1.000  C
  C478     1.0000 0.69628  0.45535  0.24808  Biso   1.000  C
  C479     1.0000 0.69550  0.52393  0.21412  Biso   1.000  C
  C480     1.0000 0.69107  0.55930  0.19865  Biso   1.000  C
  C481     1.0000 0.41965  0.69926  0.31611  Biso   1.000  C
  C482     1.0000 0.45416  0.69747  0.29984  Biso   1.000  C
  C483     1.0000 0.52274  0.69669  0.26600  Biso   1.000  C
  C484     1.0000 0.55811  0.69226  0.25053  Biso   1.000  C
  C485     1.0000 0.26259  0.31536  0.70001  Biso   1.000  C
  C486     1.0000 0.24614  0.29909  0.69822  Biso   1.000  C
  C487     1.0000 0.21218  0.26525  0.69744  Biso   1.000  C
  C488     1.0000 0.19671  0.24978  0.69301  Biso   1.000  C
  C489     1.0000 0.26259  0.42084  0.31611  Biso   1.000  C
  C490     1.0000 0.24614  0.45535  0.29984  Biso   1.000  C
  C491     1.0000 0.21218  0.52393  0.26600  Biso   1.000  C
  C492     1.0000 0.19671  0.55930  0.25053  Biso   1.000  C
  C493     1.0000 0.41965  0.26378  0.70001  Biso   1.000  C
  C494     1.0000 0.45416  0.24733  0.69822  Biso   1.000  C
  C495     1.0000 0.52274  0.21337  0.69744  Biso   1.000  C
  C496     1.0000 0.55811  0.19790  0.69301  Biso   1.000  C
  C497     1.0000 0.69807  0.31536  0.42159  Biso   1.000  C
  C498     1.0000 0.69628  0.29909  0.45610  Biso   1.000  C
  C499     1.0000 0.69550  0.26525  0.52468  Biso   1.000  C
  C500     1.0000 0.69107  0.24978  0.56005  Biso   1.000  C
  C501     1.0000 0.31417  0.69926  0.26453  Biso   1.000  C
  C502     1.0000 0.29790  0.69747  0.24808  Biso   1.000  C
  C503     1.0000 0.26406  0.69669  0.21412  Biso   1.000  C
  C504     1.0000 0.24859  0.69226  0.19865  Biso   1.000  C
  C505     1.0000 0.92759  0.65036  0.08659  Biso   1.000  C
  C506     1.0000 0.89308  0.65215  0.10304  Biso   1.000  C
  C507     1.0000 0.82450  0.65293  0.13700  Biso   1.000  C
  C508     1.0000 0.78913  0.65736  0.15247  Biso   1.000  C
  C509     1.0000 0.08465  0.03426  0.92953  Biso   1.000  C
  C510     1.0000 0.10110  0.05053  0.89502  Biso   1.000  C
  C511     1.0000 0.13506  0.08437  0.82644  Biso   1.000  C
  C512     1.0000 0.15053  0.09984  0.79107  Biso   1.000  C
  C513     1.0000 0.03307  0.08584  0.65111  Biso   1.000  C
  C514     1.0000 0.04934  0.10229  0.65290  Biso   1.000  C
  C515     1.0000 0.08318  0.13625  0.65368  Biso   1.000  C
  C516     1.0000 0.09865  0.15172  0.65811  Biso   1.000  C
  C517     1.0000 0.64917  0.92878  0.03501  Biso   1.000  C
  C518     1.0000 0.65096  0.89427  0.05128  Biso   1.000  C
  C519     1.0000 0.65174  0.82569  0.08512  Biso   1.000  C
  C520     1.0000 0.65617  0.79032  0.10059  Biso   1.000  C
  C521     1.0000 0.03307  0.65036  0.92953  Biso   1.000  C
  C522     1.0000 0.04934  0.65215  0.89502  Biso   1.000  C
  C523     1.0000 0.08318  0.65293  0.82644  Biso   1.000  C
  C524     1.0000 0.09865  0.65736  0.79107  Biso   1.000  C
  C525     1.0000 0.64917  0.03426  0.08659  Biso   1.000  C
  C526     1.0000 0.65096  0.05053  0.10304  Biso   1.000  C
  C527     1.0000 0.65174  0.08437  0.13700  Biso   1.000  C
  C528     1.0000 0.65617  0.09984  0.15247  Biso   1.000  C
  C529     1.0000 0.92759  0.08584  0.03501  Biso   1.000  C
  C530     1.0000 0.89308  0.10229  0.05128  Biso   1.000  C
  C531     1.0000 0.82450  0.13625  0.08512  Biso   1.000  C
  C532     1.0000 0.78913  0.15172  0.10059  Biso   1.000  C
  C533     1.0000 0.08465  0.92878  0.65111  Biso   1.000  C
  C534     1.0000 0.10110  0.89427  0.65290  Biso   1.000  C
  C535     1.0000 0.13506  0.82569  0.65368  Biso   1.000  C
  C536     1.0000 0.15053  0.79032  0.65811  Biso   1.000  C
  C537     1.0000 0.08465  0.65036  0.03501  Biso   1.000  C
  C538     1.0000 0.10110  0.65215  0.05128  Biso   1.000  C
  C539     1.0000 0.13506  0.65293  0.08512  Biso   1.000  C
  C540     1.0000 0.15053  0.65736  0.10059  Biso   1.000  C
  C541     1.0000 0.92759  0.03426  0.65111  Biso   1.000  C
  C542     1.0000 0.89308  0.05053  0.65290  Biso   1.000  C
  C543     1.0000 0.82450  0.08437  0.65368  Biso   1.000  C
  C544     1.0000 0.78913  0.09984  0.65811  Biso   1.000  C
  C545     1.0000 0.64917  0.08584  0.92953  Biso   1.000  C
  C546     1.0000 0.65096  0.10229  0.89502  Biso   1.000  C
  C547     1.0000 0.65174  0.13625  0.82644  Biso   1.000  C
  C548     1.0000 0.65617  0.15172  0.79107  Biso   1.000  C
  C549     1.0000 0.03307  0.92878  0.08659  Biso   1.000  C
  C550     1.0000 0.04934  0.89427  0.10304  Biso   1.000  C
  C551     1.0000 0.08318  0.82569  0.13700  Biso   1.000  C
  C552     1.0000 0.09865  0.79032  0.15247  Biso   1.000  C
  C553     1.0000 0.00039  0.00158  0.05381  Biso   1.000  C
  C554     1.0000 0.05187  0.64302  0.00233  Biso   1.000  C
  C555     1.0000 0.00039  0.00158  0.64377  Biso   1.000  C
  C556     1.0000 0.64183  0.05306  0.00233  Biso   1.000  C
  C557     1.0000 0.00039  0.05306  0.00233  Biso   1.000  C
  C558     1.0000 0.64183  0.00158  0.05381  Biso   1.000  C
  C559     1.0000 0.00039  0.64302  0.00233  Biso   1.000  C
  C560     1.0000 0.05187  0.00158  0.64377  Biso   1.000  C
  C561     1.0000 0.05187  0.00158  0.00233  Biso   1.000  C
  C562     1.0000 0.00039  0.05306  0.64377  Biso   1.000  C
  C563     1.0000 0.64183  0.00158  0.00233  Biso   1.000  C
  C564     1.0000 0.00039  0.64302  0.05381  Biso   1.000  C
  C565     1.0000 0.34685  0.70660  0.29731  Biso   1.000  C
  C566     1.0000 0.29537  0.34804  0.34879  Biso   1.000  C
  C567     1.0000 0.34685  0.29656  0.70735  Biso   1.000  C
  C568     1.0000 0.70541  0.34804  0.34879  Biso   1.000  C
  C569     1.0000 0.34685  0.70660  0.34879  Biso   1.000  C
  C570     1.0000 0.70541  0.34804  0.29731  Biso   1.000  C
  C571     1.0000 0.34685  0.29656  0.34879  Biso   1.000  C
  C572     1.0000 0.29537  0.34804  0.70735  Biso   1.000  C
  C573     1.0000 0.29537  0.70660  0.34879  Biso   1.000  C
  C574     1.0000 0.34685  0.34804  0.70735  Biso   1.000  C
  C575     1.0000 0.70541  0.29656  0.34879  Biso   1.000  C
  C576     1.0000 0.34685  0.34804  0.29731  Biso   1.000  C
  C577     1.0000 0.98322  0.03601  0.03676  Biso   1.000  C
  C578     1.0000 0.94472  0.05231  0.05306  Biso   1.000  C
  C579     1.0000 0.87742  0.08511  0.08586  Biso   1.000  C
  C580     1.0000 0.84111  0.10322  0.10397  Biso   1.000  C
  C581     1.0000 0.77224  0.13401  0.13476  Biso   1.000  C
  C582     1.0000 0.73374  0.14961  0.15036  Biso   1.000  C
  C583     1.0000 0.03482  0.64281  0.98516  Biso   1.000  C
  C584     1.0000 0.05112  0.64871  0.94666  Biso   1.000  C
  C585     1.0000 0.08392  0.65041  0.87936  Biso   1.000  C
  C586     1.0000 0.10203  0.65050  0.84305  Biso   1.000  C
  C587     1.0000 0.13282  0.65779  0.77418  Biso   1.000  C
  C588     1.0000 0.14842  0.66509  0.73568  Biso   1.000  C
  C589     1.0000 0.03482  0.98441  0.64356  Biso   1.000  C
  C590     1.0000 0.05112  0.94591  0.64946  Biso   1.000  C
  C591     1.0000 0.08392  0.87861  0.65116  Biso   1.000  C
  C592     1.0000 0.10203  0.84230  0.65125  Biso   1.000  C
  C593     1.0000 0.13282  0.77343  0.65854  Biso   1.000  C
  C594     1.0000 0.14842  0.73493  0.66584  Biso   1.000  C
  C595     1.0000 0.64162  0.03601  0.03676  Biso   1.000  C
  C596     1.0000 0.64752  0.05231  0.05306  Biso   1.000  C
  C597     1.0000 0.64922  0.08511  0.08586  Biso   1.000  C
  C598     1.0000 0.64931  0.10322  0.10397  Biso   1.000  C
  C599     1.0000 0.65660  0.13401  0.13476  Biso   1.000  C
  C600     1.0000 0.66390  0.14961  0.15036  Biso   1.000  C
  C601     1.0000 0.03482  0.03601  0.98516  Biso   1.000  C
  C602     1.0000 0.05112  0.05231  0.94666  Biso   1.000  C
  C603     1.0000 0.08392  0.08511  0.87936  Biso   1.000  C
  C604     1.0000 0.10203  0.10322  0.84305  Biso   1.000  C
  C605     1.0000 0.13282  0.13401  0.77418  Biso   1.000  C
  C606     1.0000 0.14842  0.14961  0.73568  Biso   1.000  C
  C607     1.0000 0.64162  0.98441  0.03676  Biso   1.000  C
  C608     1.0000 0.64752  0.94591  0.05306  Biso   1.000  C
  C609     1.0000 0.64922  0.87861  0.08586  Biso   1.000  C
  C610     1.0000 0.64931  0.84230  0.10397  Biso   1.000  C
  C611     1.0000 0.65660  0.77343  0.13476  Biso   1.000  C
  C612     1.0000 0.66390  0.73493  0.15036  Biso   1.000  C
  C613     1.0000 0.98322  0.64281  0.03676  Biso   1.000  C
  C614     1.0000 0.94472  0.64871  0.05306  Biso   1.000  C
  C615     1.0000 0.87742  0.65041  0.08586  Biso   1.000  C
  C616     1.0000 0.84111  0.65050  0.10397  Biso   1.000  C
  C617     1.0000 0.77224  0.65779  0.13476  Biso   1.000  C
  C618     1.0000 0.73374  0.66509  0.15036  Biso   1.000  C
  C619     1.0000 0.03482  0.03601  0.64356  Biso   1.000  C
  C620     1.0000 0.05112  0.05231  0.64946  Biso   1.000  C
  C621     1.0000 0.08392  0.08511  0.65116  Biso   1.000  C
  C622     1.0000 0.10203  0.10322  0.65125  Biso   1.000  C
  C623     1.0000 0.13282  0.13401  0.65854  Biso   1.000  C
  C624     1.0000 0.14842  0.14961  0.66584  Biso   1.000  C
  C625     1.0000 0.03482  0.98441  0.03676  Biso   1.000  C
  C626     1.0000 0.05112  0.94591  0.05306  Biso   1.000  C
  C627     1.0000 0.08392  0.87861  0.08586  Biso   1.000  C
  C628     1.0000 0.10203  0.84230  0.10397  Biso   1.000  C
  C629     1.0000 0.13282  0.77343  0.13476  Biso   1.000  C
  C630     1.0000 0.14842  0.73493  0.15036  Biso   1.000  C
  C631     1.0000 0.98322  0.03601  0.64356  Biso   1.000  C
  C632     1.0000 0.94472  0.05231  0.64946  Biso   1.000  C
  C633     1.0000 0.87742  0.08511  0.65116  Biso   1.000  C
  C634     1.0000 0.84111  0.10322  0.65125  Biso   1.000  C
  C635     1.0000 0.77224  0.13401  0.65854  Biso   1.000  C
  C636     1.0000 0.73374  0.14961  0.66584  Biso   1.000  C
  C637     1.0000 0.64162  0.03601  0.98516  Biso   1.000  C
  C638     1.0000 0.64752  0.05231  0.94666  Biso   1.000  C
  C639     1.0000 0.64922  0.08511  0.87936  Biso   1.000  C
  C640     1.0000 0.64931  0.10322  0.84305  Biso   1.000  C
  C641     1.0000 0.65660  0.13401  0.77418  Biso   1.000  C
  C642     1.0000 0.66390  0.14961  0.73568  Biso   1.000  C
  C643     1.0000 0.03482  0.64281  0.03676  Biso   1.000  C
  C644     1.0000 0.05112  0.64871  0.05306  Biso   1.000  C
  C645     1.0000 0.08392  0.65041  0.08586  Biso   1.000  C
  C646     1.0000 0.10203  0.65050  0.10397  Biso   1.000  C
  C647     1.0000 0.13282  0.65779  0.13476  Biso   1.000  C
  C648     1.0000 0.14842  0.66509  0.15036  Biso   1.000  C
  C649     1.0000 0.36402  0.70681  0.31436  Biso   1.000  C
  C650     1.0000 0.40252  0.70091  0.29806  Biso   1.000  C
  C651     1.0000 0.46982  0.69921  0.26526  Biso   1.000  C
  C652     1.0000 0.50613  0.69912  0.24715  Biso   1.000  C
  C653     1.0000 0.57500  0.69183  0.21636  Biso   1.000  C
  C654     1.0000 0.61350  0.68453  0.20076  Biso   1.000  C
  C655     1.0000 0.31242  0.31361  0.36596  Biso   1.000  C
  C656     1.0000 0.29612  0.29731  0.40446  Biso   1.000  C
  C657     1.0000 0.26332  0.26451  0.47176  Biso   1.000  C
  C658     1.0000 0.24521  0.24640  0.50807  Biso   1.000  C
  C659     1.0000 0.21442  0.21561  0.57694  Biso   1.000  C
  C660     1.0000 0.19882  0.20001  0.61544  Biso   1.000  C
  C661     1.0000 0.31242  0.31361  0.70756  Biso   1.000  C
  C662     1.0000 0.29612  0.29731  0.70166  Biso   1.000  C
  C663     1.0000 0.26332  0.26451  0.69996  Biso   1.000  C
  C664     1.0000 0.24521  0.24640  0.69987  Biso   1.000  C
  C665     1.0000 0.21442  0.21561  0.69258  Biso   1.000  C
  C666     1.0000 0.19882  0.20001  0.68528  Biso   1.000  C
  C667     1.0000 0.70562  0.36521  0.31436  Biso   1.000  C
  C668     1.0000 0.69972  0.40371  0.29806  Biso   1.000  C
  C669     1.0000 0.69802  0.47101  0.26526  Biso   1.000  C
  C670     1.0000 0.69793  0.50732  0.24715  Biso   1.000  C
  C671     1.0000 0.69064  0.57619  0.21636  Biso   1.000  C
  C672     1.0000 0.68334  0.61469  0.20076  Biso   1.000  C
  C673     1.0000 0.31242  0.70681  0.36596  Biso   1.000  C
  C674     1.0000 0.29612  0.70091  0.40446  Biso   1.000  C
  C675     1.0000 0.26332  0.69921  0.47176  Biso   1.000  C
  C676     1.0000 0.24521  0.69912  0.50807  Biso   1.000  C
  C677     1.0000 0.21442  0.69183  0.57694  Biso   1.000  C
  C678     1.0000 0.19882  0.68453  0.61544  Biso   1.000  C
  C679     1.0000 0.70562  0.31361  0.31436  Biso   1.000  C
  C680     1.0000 0.69972  0.29731  0.29806  Biso   1.000  C
  C681     1.0000 0.69802  0.26451  0.26526  Biso   1.000  C
  C682     1.0000 0.69793  0.24640  0.24715  Biso   1.000  C
  C683     1.0000 0.69064  0.21561  0.21636  Biso   1.000  C
  C684     1.0000 0.68334  0.20001  0.20076  Biso   1.000  C
  C685     1.0000 0.36402  0.31361  0.31436  Biso   1.000  C
  C686     1.0000 0.40252  0.29731  0.29806  Biso   1.000  C
  C687     1.0000 0.46982  0.26451  0.26526  Biso   1.000  C
  C688     1.0000 0.50613  0.24640  0.24715  Biso   1.000  C
  C689     1.0000 0.57500  0.21561  0.21636  Biso   1.000  C
  C690     1.0000 0.61350  0.20001  0.20076  Biso   1.000  C
  C691     1.0000 0.31242  0.36521  0.70756  Biso   1.000  C
  C692     1.0000 0.29612  0.40371  0.70166  Biso   1.000  C
  C693     1.0000 0.26332  0.47101  0.69996  Biso   1.000  C
  C694     1.0000 0.24521  0.50732  0.69987  Biso   1.000  C
  C695     1.0000 0.21442  0.57619  0.69258  Biso   1.000  C
  C696     1.0000 0.19882  0.61469  0.68528  Biso   1.000  C
  C697     1.0000 0.31242  0.70681  0.31436  Biso   1.000  C
  C698     1.0000 0.29612  0.70091  0.29806  Biso   1.000  C
  C699     1.0000 0.26332  0.69921  0.26526  Biso   1.000  C
  C700     1.0000 0.24521  0.69912  0.24715  Biso   1.000  C
  C701     1.0000 0.21442  0.69183  0.21636  Biso   1.000  C
  C702     1.0000 0.19882  0.68453  0.20076  Biso   1.000  C
  C703     1.0000 0.36402  0.31361  0.70756  Biso   1.000  C
  C704     1.0000 0.40252  0.29731  0.70166  Biso   1.000  C
  C705     1.0000 0.46982  0.26451  0.69996  Biso   1.000  C
  C706     1.0000 0.50613  0.24640  0.69987  Biso   1.000  C
  C707     1.0000 0.57500  0.21561  0.69258  Biso   1.000  C
  C708     1.0000 0.61350  0.20001  0.68528  Biso   1.000  C
  C709     1.0000 0.70562  0.31361  0.36596  Biso   1.000  C
  C710     1.0000 0.69972  0.29731  0.40446  Biso   1.000  C
  C711     1.0000 0.69802  0.26451  0.47176  Biso   1.000  C
  C712     1.0000 0.69793  0.24640  0.50807  Biso   1.000  C
  C713     1.0000 0.69064  0.21561  0.57694  Biso   1.000  C
  C714     1.0000 0.68334  0.20001  0.61544  Biso   1.000  C
  C715     1.0000 0.31242  0.36521  0.31436  Biso   1.000  C
  C716     1.0000 0.29612  0.40371  0.29806  Biso   1.000  C
  C717     1.0000 0.26332  0.47101  0.26526  Biso   1.000  C
  C718     1.0000 0.24521  0.50732  0.24715  Biso   1.000  C
  C719     1.0000 0.21442  0.57619  0.21636  Biso   1.000  C
  C720     1.0000 0.19882  0.61469  0.20076  Biso   1.000  C
  O49      1.0000 0.72111  0.13196  0.17953  Biso   1.000  O
  O50      1.0000 0.17759  0.66620  0.72305  Biso   1.000  O
  O51      1.0000 0.13077  0.72230  0.66695  Biso   1.000  O
  O52      1.0000 0.66501  0.17878  0.13271  Biso   1.000  O
  O53      1.0000 0.13077  0.17878  0.72305  Biso   1.000  O
  O54      1.0000 0.66501  0.72230  0.17953  Biso   1.000  O
  O55      1.0000 0.72111  0.66620  0.13271  Biso   1.000  O
  O56      1.0000 0.17759  0.13196  0.66695  Biso   1.000  O
  O57      1.0000 0.17759  0.72230  0.13271  Biso   1.000  O
  O58      1.0000 0.72111  0.17878  0.66695  Biso   1.000  O
  O59      1.0000 0.66501  0.13196  0.72305  Biso   1.000  O
  O60      1.0000 0.13077  0.66620  0.17953  Biso   1.000  O
  O61      1.0000 0.62613  0.68342  0.17159  Biso   1.000  O
  O62      1.0000 0.16965  0.21766  0.62807  Biso   1.000  O
  O63      1.0000 0.21647  0.17084  0.68417  Biso   1.000  O
  O64      1.0000 0.68223  0.62732  0.21841  Biso   1.000  O
  O65      1.0000 0.21647  0.68342  0.62807  Biso   1.000  O
  O66      1.0000 0.68223  0.21766  0.17159  Biso   1.000  O
  O67      1.0000 0.62613  0.17084  0.21841  Biso   1.000  O
  O68      1.0000 0.16965  0.62732  0.68417  Biso   1.000  O
  O69      1.0000 0.16965  0.68342  0.21841  Biso   1.000  O
  O70      1.0000 0.62613  0.21766  0.68417  Biso   1.000  O
  O71      1.0000 0.68223  0.17084  0.62807  Biso   1.000  O
  O72      1.0000 0.21647  0.62732  0.17159  Biso   1.000  O
  O73      1.0000 0.62613  0.21766  0.17159  Biso   1.000  O
  O74      1.0000 0.16965  0.68342  0.62807  Biso   1.000  O
  O75      1.0000 0.21647  0.62732  0.68417  Biso   1.000  O
  O76      1.0000 0.68223  0.17084  0.21841  Biso   1.000  O
  O77      1.0000 0.21647  0.17084  0.62807  Biso   1.000  O
  O78      1.0000 0.68223  0.62732  0.17159  Biso   1.000  O
  O79      1.0000 0.62613  0.68342  0.21841  Biso   1.000  O
  O80      1.0000 0.16965  0.21766  0.68417  Biso   1.000  O
  O81      1.0000 0.16965  0.62732  0.21841  Biso   1.000  O
  O82      1.0000 0.62613  0.17084  0.68417  Biso   1.000  O
  O83      1.0000 0.68223  0.21766  0.62807  Biso   1.000  O
  O84      1.0000 0.21647  0.68342  0.17159  Biso   1.000  O
  O85      1.0000 0.72111  0.66620  0.17953  Biso   1.000  O
  O86      1.0000 0.17759  0.13196  0.72305  Biso   1.000  O
  O87      1.0000 0.13077  0.17878  0.66695  Biso   1.000  O
  O88      1.0000 0.66501  0.72230  0.13271  Biso   1.000  O
  O89      1.0000 0.13077  0.66620  0.72305  Biso   1.000  O
  O90      1.0000 0.66501  0.13196  0.17953  Biso   1.000  O
  O91      1.0000 0.72111  0.17878  0.13271  Biso   1.000  O
  O92      1.0000 0.17759  0.72230  0.66695  Biso   1.000  O
  O93      1.0000 0.17759  0.66620  0.13271  Biso   1.000  O
  O94      1.0000 0.72111  0.13196  0.66695  Biso   1.000  O
  O95      1.0000 0.66501  0.17878  0.72305  Biso   1.000  O
