data_image0
_cell_length_a       29.03
_cell_length_b       29.03
_cell_length_c       29.03
_cell_angle_alpha    90
_cell_angle_beta     90
_cell_angle_gamma    90

_symmetry_space_group_name_H-M    "P 1"
_symmetry_int_tables_number       1

loop_
  _symmetry_equiv_pos_as_xyz
  'x, y, z'

loop_
  _atom_site_label
  _atom_site_occupancy
  _atom_site_fract_x
  _atom_site_fract_y
  _atom_site_fract_z
  _atom_site_thermal_displace_type
  _atom_site_B_iso_or_equiv
  _atom_site_type_symbol
  N1       1.0000 0.41998  0.04672  0.54607  Biso   1.000  N
  N2       1.0000 0.58002  0.95328  0.54607  Biso   1.000  N
  N3       1.0000 0.58002  0.04672  0.45393  Biso   1.000  N
  N4       1.0000 0.41998  0.95328  0.45393  Biso   1.000  N
  N5       1.0000 0.54607  0.41998  0.04672  Biso   1.000  N
  N6       1.0000 0.54607  0.58002  0.95328  Biso   1.000  N
  N7       1.0000 0.45393  0.58002  0.04672  Biso   1.000  N
  N8       1.0000 0.45393  0.41998  0.95328  Biso   1.000  N
  N9       1.0000 0.04672  0.54607  0.41998  Biso   1.000  N
  N10      1.0000 0.95328  0.54607  0.58002  Biso   1.000  N
  N11      1.0000 0.04672  0.45393  0.58002  Biso   1.000  N
  N12      1.0000 0.95328  0.45393  0.41998  Biso   1.000  N
  N13      1.0000 0.04672  0.41998  0.45393  Biso   1.000  N
  N14      1.0000 0.95328  0.58002  0.45393  Biso   1.000  N
  N15      1.0000 0.04672  0.58002  0.54607  Biso   1.000  N
  N16      1.0000 0.95328  0.41998  0.54607  Biso   1.000  N
  N17      1.0000 0.41998  0.54607  0.95328  Biso   1.000  N
  N18      1.0000 0.58002  0.54607  0.04672  Biso   1.000  N
  N19      1.0000 0.58002  0.45393  0.95328  Biso   1.000  N
  N20      1.0000 0.41998  0.45393  0.04672  Biso   1.000  N
  N21      1.0000 0.54607  0.04672  0.58002  Biso   1.000  N
  N22      1.0000 0.54607  0.95328  0.41998  Biso   1.000  N
  N23      1.0000 0.45393  0.04672  0.41998  Biso   1.000  N
  N24      1.0000 0.45393  0.95328  0.58002  Biso   1.000  N
  N25      1.0000 0.58002  0.95328  0.45393  Biso   1.000  N
  N26      1.0000 0.41998  0.04672  0.45393  Biso   1.000  N
  N27      1.0000 0.41998  0.95328  0.54607  Biso   1.000  N
  N28      1.0000 0.58002  0.04672  0.54607  Biso   1.000  N
  N29      1.0000 0.45393  0.58002  0.95328  Biso   1.000  N
  N30      1.0000 0.45393  0.41998  0.04672  Biso   1.000  N
  N31      1.0000 0.54607  0.41998  0.95328  Biso   1.000  N
  N32      1.0000 0.54607  0.58002  0.04672  Biso   1.000  N
  N33      1.0000 0.95328  0.45393  0.58002  Biso   1.000  N
  N34      1.0000 0.04672  0.45393  0.41998  Biso   1.000  N
  N35      1.0000 0.95328  0.54607  0.41998  Biso   1.000  N
  N36      1.0000 0.04672  0.54607  0.58002  Biso   1.000  N
  N37      1.0000 0.95328  0.58002  0.54607  Biso   1.000  N
  N38      1.0000 0.04672  0.41998  0.54607  Biso   1.000  N
  N39      1.0000 0.95328  0.41998  0.45393  Biso   1.000  N
  N40      1.0000 0.04672  0.58002  0.45393  Biso   1.000  N
  N41      1.0000 0.58002  0.45393  0.04672  Biso   1.000  N
  N42      1.0000 0.41998  0.45393  0.95328  Biso   1.000  N
  N43      1.0000 0.41998  0.54607  0.04672  Biso   1.000  N
  N44      1.0000 0.58002  0.54607  0.95328  Biso   1.000  N
  N45      1.0000 0.45393  0.95328  0.41998  Biso   1.000  N
  N46      1.0000 0.45393  0.04672  0.58002  Biso   1.000  N
  N47      1.0000 0.54607  0.95328  0.58002  Biso   1.000  N
  N48      1.0000 0.54607  0.04672  0.41998  Biso   1.000  N
  N49      1.0000 0.39669  0.08853  0.55031  Biso   1.000  N
  N50      1.0000 0.60331  0.91147  0.55031  Biso   1.000  N
  N51      1.0000 0.60331  0.08853  0.44969  Biso   1.000  N
  N52      1.0000 0.39669  0.91147  0.44969  Biso   1.000  N
  N53      1.0000 0.55031  0.39669  0.08853  Biso   1.000  N
  N54      1.0000 0.55031  0.60331  0.91147  Biso   1.000  N
  N55      1.0000 0.44969  0.60331  0.08853  Biso   1.000  N
  N56      1.0000 0.44969  0.39669  0.91147  Biso   1.000  N
  N57      1.0000 0.08853  0.55031  0.39669  Biso   1.000  N
  N58      1.0000 0.91147  0.55031  0.60331  Biso   1.000  N
  N59      1.0000 0.08853  0.44969  0.60331  Biso   1.000  N
  N60      1.0000 0.91147  0.44969  0.39669  Biso   1.000  N
  N61      1.0000 0.08853  0.39669  0.44969  Biso   1.000  N
  N62      1.0000 0.91147  0.60331  0.44969  Biso   1.000  N
  N63      1.0000 0.08853  0.60331  0.55031  Biso   1.000  N
  N64      1.0000 0.91147  0.39669  0.55031  Biso   1.000  N
  N65      1.0000 0.39669  0.55031  0.91147  Biso   1.000  N
  N66      1.0000 0.60331  0.55031  0.08853  Biso   1.000  N
  N67      1.0000 0.60331  0.44969  0.91147  Biso   1.000  N
  N68      1.0000 0.39669  0.44969  0.08853  Biso   1.000  N
  N69      1.0000 0.55031  0.08853  0.60331  Biso   1.000  N
  N70      1.0000 0.55031  0.91147  0.39669  Biso   1.000  N
  N71      1.0000 0.44969  0.08853  0.39669  Biso   1.000  N
  N72      1.0000 0.44969  0.91147  0.60331  Biso   1.000  N
  N73      1.0000 0.60331  0.91147  0.44969  Biso   1.000  N
  N74      1.0000 0.39669  0.08853  0.44969  Biso   1.000  N
  N75      1.0000 0.39669  0.91147  0.55031  Biso   1.000  N
  N76      1.0000 0.60331  0.08853  0.55031  Biso   1.000  N
  N77      1.0000 0.44969  0.60331  0.91147  Biso   1.000  N
  N78      1.0000 0.44969  0.39669  0.08853  Biso   1.000  N
  N79      1.0000 0.55031  0.39669  0.91147  Biso   1.000  N
  N80      1.0000 0.55031  0.60331  0.08853  Biso   1.000  N
  N81      1.0000 0.91147  0.44969  0.60331  Biso   1.000  N
  N82      1.0000 0.08853  0.44969  0.39669  Biso   1.000  N
  N83      1.0000 0.91147  0.55031  0.39669  Biso   1.000  N
  N84      1.0000 0.08853  0.55031  0.60331  Biso   1.000  N
  N85      1.0000 0.91147  0.60331  0.55031  Biso   1.000  N
  N86      1.0000 0.08853  0.39669  0.55031  Biso   1.000  N
  N87      1.0000 0.91147  0.39669  0.44969  Biso   1.000  N
  N88      1.0000 0.08853  0.60331  0.44969  Biso   1.000  N
  N89      1.0000 0.60331  0.44969  0.08853  Biso   1.000  N
  N90      1.0000 0.39669  0.44969  0.91147  Biso   1.000  N
  N91      1.0000 0.39669  0.55031  0.08853  Biso   1.000  N
  N92      1.0000 0.60331  0.55031  0.91147  Biso   1.000  N
  N93      1.0000 0.44969  0.91147  0.39669  Biso   1.000  N
  N94      1.0000 0.44969  0.08853  0.60331  Biso   1.000  N
  N95      1.0000 0.55031  0.91147  0.60331  Biso   1.000  N
  N96      1.0000 0.55031  0.08853  0.39669  Biso   1.000  N
  C1       1.0000 0.36407  0.17904  0.57732  Biso   1.000  C
  C2       1.0000 0.63593  0.82096  0.57732  Biso   1.000  C
  C3       1.0000 0.63593  0.17904  0.42268  Biso   1.000  C
  C4       1.0000 0.36407  0.82096  0.42268  Biso   1.000  C
  C5       1.0000 0.57732  0.36407  0.17904  Biso   1.000  C
  C6       1.0000 0.57732  0.63593  0.82096  Biso   1.000  C
  C7       1.0000 0.42268  0.63593  0.17904  Biso   1.000  C
  C8       1.0000 0.42268  0.36407  0.82096  Biso   1.000  C
  C9       1.0000 0.17904  0.57732  0.36407  Biso   1.000  C
  C10      1.0000 0.82096  0.57732  0.63593  Biso   1.000  C
  C11      1.0000 0.17904  0.42268  0.63593  Biso   1.000  C
  C12      1.0000 0.82096  0.42268  0.36407  Biso   1.000  C
  C13      1.0000 0.17904  0.36407  0.42268  Biso   1.000  C
  C14      1.0000 0.82096  0.63593  0.42268  Biso   1.000  C
  C15      1.0000 0.17904  0.63593  0.57732  Biso   1.000  C
  C16      1.0000 0.82096  0.36407  0.57732  Biso   1.000  C
  C17      1.0000 0.36407  0.57732  0.82096  Biso   1.000  C
  C18      1.0000 0.63593  0.57732  0.17904  Biso   1.000  C
  C19      1.0000 0.63593  0.42268  0.82096  Biso   1.000  C
  C20      1.0000 0.36407  0.42268  0.17904  Biso   1.000  C
  C21      1.0000 0.57732  0.17904  0.63593  Biso   1.000  C
  C22      1.0000 0.57732  0.82096  0.36407  Biso   1.000  C
  C23      1.0000 0.42268  0.17904  0.36407  Biso   1.000  C
  C24      1.0000 0.42268  0.82096  0.63593  Biso   1.000  C
  C25      1.0000 0.63593  0.82096  0.42268  Biso   1.000  C
  C26      1.0000 0.36407  0.17904  0.42268  Biso   1.000  C
  C27      1.0000 0.36407  0.82096  0.57732  Biso   1.000  C
  C28      1.0000 0.63593  0.17904  0.57732  Biso   1.000  C
  C29      1.0000 0.42268  0.63593  0.82096  Biso   1.000  C
  C30      1.0000 0.42268  0.36407  0.17904  Biso   1.000  C
  C31      1.0000 0.57732  0.36407  0.82096  Biso   1.000  C
  C32      1.0000 0.57732  0.63593  0.17904  Biso   1.000  C
  C33      1.0000 0.82096  0.42268  0.63593  Biso   1.000  C
  C34      1.0000 0.17904  0.42268  0.36407  Biso   1.000  C
  C35      1.0000 0.82096  0.57732  0.36407  Biso   1.000  C
  C36      1.0000 0.17904  0.57732  0.63593  Biso   1.000  C
  C37      1.0000 0.82096  0.63593  0.57732  Biso   1.000  C
  C38      1.0000 0.17904  0.36407  0.57732  Biso   1.000  C
  C39      1.0000 0.82096  0.36407  0.42268  Biso   1.000  C
  C40      1.0000 0.17904  0.63593  0.42268  Biso   1.000  C
  C41      1.0000 0.63593  0.42268  0.17904  Biso   1.000  C
  C42      1.0000 0.36407  0.42268  0.82096  Biso   1.000  C
  C43      1.0000 0.36407  0.57732  0.17904  Biso   1.000  C
  C44      1.0000 0.63593  0.57732  0.82096  Biso   1.000  C
  C45      1.0000 0.42268  0.82096  0.36407  Biso   1.000  C
  C46      1.0000 0.42268  0.17904  0.63593  Biso   1.000  C
  C47      1.0000 0.57732  0.82096  0.63593  Biso   1.000  C
  C48      1.0000 0.57732  0.17904  0.36407  Biso   1.000  C
  C49      1.0000 0.34837  0.22177  0.59283  Biso   1.000  C
  C50      1.0000 0.65163  0.77823  0.59283  Biso   1.000  C
  C51      1.0000 0.65163  0.22177  0.40717  Biso   1.000  C
  C52      1.0000 0.34837  0.77823  0.40717  Biso   1.000  C
  C53      1.0000 0.59283  0.34837  0.22177  Biso   1.000  C
  C54      1.0000 0.59283  0.65163  0.77823  Biso   1.000  C
  C55      1.0000 0.40717  0.65163  0.22177  Biso   1.000  C
  C56      1.0000 0.40717  0.34837  0.77823  Biso   1.000  C
  C57      1.0000 0.22177  0.59283  0.34837  Biso   1.000  C
  C58      1.0000 0.77823  0.59283  0.65163  Biso   1.000  C
  C59      1.0000 0.22177  0.40717  0.65163  Biso   1.000  C
  C60      1.0000 0.77823  0.40717  0.34837  Biso   1.000  C
  C61      1.0000 0.22177  0.34837  0.40717  Biso   1.000  C
  C62      1.0000 0.77823  0.65163  0.40717  Biso   1.000  C
  C63      1.0000 0.22177  0.65163  0.59283  Biso   1.000  C
  C64      1.0000 0.77823  0.34837  0.59283  Biso   1.000  C
  C65      1.0000 0.34837  0.59283  0.77823  Biso   1.000  C
  C66      1.0000 0.65163  0.59283  0.22177  Biso   1.000  C
  C67      1.0000 0.65163  0.40717  0.77823  Biso   1.000  C
  C68      1.0000 0.34837  0.40717  0.22177  Biso   1.000  C
  C69      1.0000 0.59283  0.22177  0.65163  Biso   1.000  C
  C70      1.0000 0.59283  0.77823  0.34837  Biso   1.000  C
  C71      1.0000 0.40717  0.22177  0.34837  Biso   1.000  C
  C72      1.0000 0.40717  0.77823  0.65163  Biso   1.000  C
  C73      1.0000 0.65163  0.77823  0.40717  Biso   1.000  C
  C74      1.0000 0.34837  0.22177  0.40717  Biso   1.000  C
  C75      1.0000 0.34837  0.77823  0.59283  Biso   1.000  C
  C76      1.0000 0.65163  0.22177  0.59283  Biso   1.000  C
  C77      1.0000 0.40717  0.65163  0.77823  Biso   1.000  C
  C78      1.0000 0.40717  0.34837  0.22177  Biso   1.000  C
  C79      1.0000 0.59283  0.34837  0.77823  Biso   1.000  C
  C80      1.0000 0.59283  0.65163  0.22177  Biso   1.000  C
  C81      1.0000 0.77823  0.40717  0.65163  Biso   1.000  C
  C82      1.0000 0.22177  0.40717  0.34837  Biso   1.000  C
  C83      1.0000 0.77823  0.59283  0.34837  Biso   1.000  C
  C84      1.0000 0.22177  0.59283  0.65163  Biso   1.000  C
  C85      1.0000 0.77823  0.65163  0.59283  Biso   1.000  C
  C86      1.0000 0.22177  0.34837  0.59283  Biso   1.000  C
  C87      1.0000 0.77823  0.34837  0.40717  Biso   1.000  C
  C88      1.0000 0.22177  0.65163  0.40717  Biso   1.000  C
  C89      1.0000 0.65163  0.40717  0.22177  Biso   1.000  C
  C90      1.0000 0.34837  0.40717  0.77823  Biso   1.000  C
  C91      1.0000 0.34837  0.59283  0.22177  Biso   1.000  C
  C92      1.0000 0.65163  0.59283  0.77823  Biso   1.000  C
  C93      1.0000 0.40717  0.77823  0.34837  Biso   1.000  C
  C94      1.0000 0.40717  0.22177  0.65163  Biso   1.000  C
  C95      1.0000 0.59283  0.77823  0.65163  Biso   1.000  C
  C96      1.0000 0.59283  0.22177  0.34837  Biso   1.000  C
  H1       1.0000 0.34678  0.16303  0.54838  Biso   1.000  H
  H2       1.0000 0.65322  0.83697  0.54838  Biso   1.000  H
  H3       1.0000 0.65322  0.16303  0.45162  Biso   1.000  H
  H4       1.0000 0.34678  0.83697  0.45162  Biso   1.000  H
  H5       1.0000 0.54838  0.34678  0.16303  Biso   1.000  H
  H6       1.0000 0.54838  0.65322  0.83697  Biso   1.000  H
  H7       1.0000 0.45162  0.65322  0.16303  Biso   1.000  H
  H8       1.0000 0.45162  0.34678  0.83697  Biso   1.000  H
  H9       1.0000 0.16303  0.54838  0.34678  Biso   1.000  H
  H10      1.0000 0.83697  0.54838  0.65322  Biso   1.000  H
  H11      1.0000 0.16303  0.45162  0.65322  Biso   1.000  H
  H12      1.0000 0.83697  0.45162  0.34678  Biso   1.000  H
  H13      1.0000 0.16303  0.34678  0.45162  Biso   1.000  H
  H14      1.0000 0.83697  0.65322  0.45162  Biso   1.000  H
  H15      1.0000 0.16303  0.65322  0.54838  Biso   1.000  H
  H16      1.0000 0.83697  0.34678  0.54838  Biso   1.000  H
  H17      1.0000 0.34678  0.54838  0.83697  Biso   1.000  H
  H18      1.0000 0.65322  0.54838  0.16303  Biso   1.000  H
  H19      1.0000 0.65322  0.45162  0.83697  Biso   1.000  H
  H20      1.0000 0.34678  0.45162  0.16303  Biso   1.000  H
  H21      1.0000 0.54838  0.16303  0.65322  Biso   1.000  H
  H22      1.0000 0.54838  0.83697  0.34678  Biso   1.000  H
  H23      1.0000 0.45162  0.16303  0.34678  Biso   1.000  H
  H24      1.0000 0.45162  0.83697  0.65322  Biso   1.000  H
  H25      1.0000 0.65322  0.83697  0.45162  Biso   1.000  H
  H26      1.0000 0.34678  0.16303  0.45162  Biso   1.000  H
  H27      1.0000 0.34678  0.83697  0.54838  Biso   1.000  H
  H28      1.0000 0.65322  0.16303  0.54838  Biso   1.000  H
  H29      1.0000 0.45162  0.65322  0.83697  Biso   1.000  H
  H30      1.0000 0.45162  0.34678  0.16303  Biso   1.000  H
  H31      1.0000 0.54838  0.34678  0.83697  Biso   1.000  H
  H32      1.0000 0.54838  0.65322  0.16303  Biso   1.000  H
  H33      1.0000 0.83697  0.45162  0.65322  Biso   1.000  H
  H34      1.0000 0.16303  0.45162  0.34678  Biso   1.000  H
  H35      1.0000 0.83697  0.54838  0.34678  Biso   1.000  H
  H36      1.0000 0.16303  0.54838  0.65322  Biso   1.000  H
  H37      1.0000 0.83697  0.65322  0.54838  Biso   1.000  H
  H38      1.0000 0.16303  0.34678  0.54838  Biso   1.000  H
  H39      1.0000 0.83697  0.34678  0.45162  Biso   1.000  H
  H40      1.0000 0.16303  0.65322  0.45162  Biso   1.000  H
  H41      1.0000 0.65322  0.45162  0.16303  Biso   1.000  H
  H42      1.0000 0.34678  0.45162  0.83697  Biso   1.000  H
  H43      1.0000 0.34678  0.54838  0.16303  Biso   1.000  H
  H44      1.0000 0.65322  0.54838  0.83697  Biso   1.000  H
  H45      1.0000 0.45162  0.83697  0.34678  Biso   1.000  H
  H46      1.0000 0.45162  0.16303  0.65322  Biso   1.000  H
  H47      1.0000 0.54838  0.83697  0.65322  Biso   1.000  H
  H48      1.0000 0.54838  0.16303  0.34678  Biso   1.000  H
  H49      1.0000 0.31959  0.23558  0.57408  Biso   1.000  H
  H50      1.0000 0.68041  0.76442  0.57408  Biso   1.000  H
  H51      1.0000 0.68041  0.23558  0.42592  Biso   1.000  H
  H52      1.0000 0.31959  0.76442  0.42592  Biso   1.000  H
  H53      1.0000 0.57408  0.31959  0.23558  Biso   1.000  H
  H54      1.0000 0.57408  0.68041  0.76442  Biso   1.000  H
  H55      1.0000 0.42592  0.68041  0.23558  Biso   1.000  H
  H56      1.0000 0.42592  0.31959  0.76442  Biso   1.000  H
  H57      1.0000 0.23558  0.57408  0.31959  Biso   1.000  H
  H58      1.0000 0.76442  0.57408  0.68041  Biso   1.000  H
  H59      1.0000 0.23558  0.42592  0.68041  Biso   1.000  H
  H60      1.0000 0.76442  0.42592  0.31959  Biso   1.000  H
  H61      1.0000 0.23558  0.31959  0.42592  Biso   1.000  H
  H62      1.0000 0.76442  0.68041  0.42592  Biso   1.000  H
  H63      1.0000 0.23558  0.68041  0.57408  Biso   1.000  H
  H64      1.0000 0.76442  0.31959  0.57408  Biso   1.000  H
  H65      1.0000 0.31959  0.57408  0.76442  Biso   1.000  H
  H66      1.0000 0.68041  0.57408  0.23558  Biso   1.000  H
  H67      1.0000 0.68041  0.42592  0.76442  Biso   1.000  H
  H68      1.0000 0.31959  0.42592  0.23558  Biso   1.000  H
  H69      1.0000 0.57408  0.23558  0.68041  Biso   1.000  H
  H70      1.0000 0.57408  0.76442  0.31959  Biso   1.000  H
  H71      1.0000 0.42592  0.23558  0.31959  Biso   1.000  H
  H72      1.0000 0.42592  0.76442  0.68041  Biso   1.000  H
  H73      1.0000 0.68041  0.76442  0.42592  Biso   1.000  H
  H74      1.0000 0.31959  0.23558  0.42592  Biso   1.000  H
  H75      1.0000 0.31959  0.76442  0.57408  Biso   1.000  H
  H76      1.0000 0.68041  0.23558  0.57408  Biso   1.000  H
  H77      1.0000 0.42592  0.68041  0.76442  Biso   1.000  H
  H78      1.0000 0.42592  0.31959  0.23558  Biso   1.000  H
  H79      1.0000 0.57408  0.31959  0.76442  Biso   1.000  H
  H80      1.0000 0.57408  0.68041  0.23558  Biso   1.000  H
  H81      1.0000 0.76442  0.42592  0.68041  Biso   1.000  H
  H82      1.0000 0.23558  0.42592  0.31959  Biso   1.000  H
  H83      1.0000 0.76442  0.57408  0.31959  Biso   1.000  H
  H84      1.0000 0.23558  0.57408  0.68041  Biso   1.000  H
  H85      1.0000 0.76442  0.68041  0.57408  Biso   1.000  H
  H86      1.0000 0.23558  0.31959  0.57408  Biso   1.000  H
  H87      1.0000 0.76442  0.31959  0.42592  Biso   1.000  H
  H88      1.0000 0.23558  0.68041  0.42592  Biso   1.000  H
  H89      1.0000 0.68041  0.42592  0.23558  Biso   1.000  H
  H90      1.0000 0.31959  0.42592  0.76442  Biso   1.000  H
  H91      1.0000 0.31959  0.57408  0.23558  Biso   1.000  H
  H92      1.0000 0.68041  0.57408  0.76442  Biso   1.000  H
  H93      1.0000 0.42592  0.76442  0.31959  Biso   1.000  H
  H94      1.0000 0.42592  0.23558  0.68041  Biso   1.000  H
  H95      1.0000 0.57408  0.76442  0.68041  Biso   1.000  H
  H96      1.0000 0.57408  0.23558  0.31959  Biso   1.000  H
  Cu1      1.0000 0.40181  0.00000  0.50000  Biso   1.000  Cu
  Cu2      1.0000 0.59819  0.00000  0.50000  Biso   1.000  Cu
  Cu3      1.0000 0.50000  0.40181  0.00000  Biso   1.000  Cu
  Cu4      1.0000 0.50000  0.59819  0.00000  Biso   1.000  Cu
  Cu5      1.0000 0.00000  0.50000  0.40181  Biso   1.000  Cu
  Cu6      1.0000 0.00000  0.50000  0.59819  Biso   1.000  Cu
  Cu7      1.0000 0.00000  0.40181  0.50000  Biso   1.000  Cu
  Cu8      1.0000 0.00000  0.59819  0.50000  Biso   1.000  Cu
  Cu9      1.0000 0.40181  0.50000  0.00000  Biso   1.000  Cu
  Cu10     1.0000 0.59819  0.50000  0.00000  Biso   1.000  Cu
  Cu11     1.0000 0.50000  0.00000  0.59819  Biso   1.000  Cu
  Cu12     1.0000 0.50000  0.00000  0.40181  Biso   1.000  Cu
  Cl1      1.0000 0.32443  0.00000  0.50000  Biso   1.000  Cl
  Cl2      1.0000 0.67557  0.00000  0.50000  Biso   1.000  Cl
  Cl3      1.0000 0.50000  0.32443  0.00000  Biso   1.000  Cl
  Cl4      1.0000 0.50000  0.67557  0.00000  Biso   1.000  Cl
  Cl5      1.0000 0.00000  0.50000  0.32443  Biso   1.000  Cl
  Cl6      1.0000 0.00000  0.50000  0.67557  Biso   1.000  Cl
  Cl7      1.0000 0.00000  0.32443  0.50000  Biso   1.000  Cl
  Cl8      1.0000 0.00000  0.67557  0.50000  Biso   1.000  Cl
  Cl9      1.0000 0.32443  0.50000  0.00000  Biso   1.000  Cl
  Cl10     1.0000 0.67557  0.50000  0.00000  Biso   1.000  Cl
  Cl11     1.0000 0.50000  0.00000  0.67557  Biso   1.000  Cl
  Cl12     1.0000 0.50000  0.00000  0.32443  Biso   1.000  Cl
  Cl13     1.0000 0.50000  0.00000  0.50000  Biso   1.000  Cl
  Cl14     1.0000 0.50000  0.50000  0.00000  Biso   1.000  Cl
  Cl15     1.0000 0.00000  0.50000  0.50000  Biso   1.000  Cl
  Cu13     1.0000 0.21573  0.13460  0.50000  Biso   1.000  Cu
  Cu14     1.0000 0.78427  0.86540  0.50000  Biso   1.000  Cu
  Cu15     1.0000 0.78427  0.13460  0.50000  Biso   1.000  Cu
  Cu16     1.0000 0.21573  0.86540  0.50000  Biso   1.000  Cu
  Cu17     1.0000 0.50000  0.21573  0.13460  Biso   1.000  Cu
  Cu18     1.0000 0.50000  0.78427  0.86540  Biso   1.000  Cu
  Cu19     1.0000 0.50000  0.78427  0.13460  Biso   1.000  Cu
  Cu20     1.0000 0.50000  0.21573  0.86540  Biso   1.000  Cu
  Cu21     1.0000 0.13460  0.50000  0.21573  Biso   1.000  Cu
  Cu22     1.0000 0.86540  0.50000  0.78427  Biso   1.000  Cu
  Cu23     1.0000 0.13460  0.50000  0.78427  Biso   1.000  Cu
  Cu24     1.0000 0.86540  0.50000  0.21573  Biso   1.000  Cu
  Cu25     1.0000 0.13460  0.21573  0.50000  Biso   1.000  Cu
  Cu26     1.0000 0.86540  0.78427  0.50000  Biso   1.000  Cu
  Cu27     1.0000 0.13460  0.78427  0.50000  Biso   1.000  Cu
  Cu28     1.0000 0.86540  0.21573  0.50000  Biso   1.000  Cu
  Cu29     1.0000 0.21573  0.50000  0.86540  Biso   1.000  Cu
  Cu30     1.0000 0.78427  0.50000  0.13460  Biso   1.000  Cu
  Cu31     1.0000 0.78427  0.50000  0.86540  Biso   1.000  Cu
  Cu32     1.0000 0.21573  0.50000  0.13460  Biso   1.000  Cu
  Cu33     1.0000 0.50000  0.13460  0.78427  Biso   1.000  Cu
  Cu34     1.0000 0.50000  0.86540  0.21573  Biso   1.000  Cu
  Cu35     1.0000 0.50000  0.13460  0.21573  Biso   1.000  Cu
  Cu36     1.0000 0.50000  0.86540  0.78427  Biso   1.000  Cu
  C97      1.0000 0.41606  0.11077  0.58394  Biso   1.000  C
  C98      1.0000 0.58394  0.88923  0.58394  Biso   1.000  C
  C99      1.0000 0.58394  0.11077  0.41606  Biso   1.000  C
  C100     1.0000 0.41606  0.88923  0.41606  Biso   1.000  C
  C101     1.0000 0.58394  0.41606  0.11077  Biso   1.000  C
  C102     1.0000 0.58394  0.58394  0.88923  Biso   1.000  C
  C103     1.0000 0.41606  0.58394  0.11077  Biso   1.000  C
  C104     1.0000 0.41606  0.41606  0.88923  Biso   1.000  C
  C105     1.0000 0.11077  0.58394  0.41606  Biso   1.000  C
  C106     1.0000 0.88923  0.58394  0.58394  Biso   1.000  C
  C107     1.0000 0.11077  0.41606  0.58394  Biso   1.000  C
  C108     1.0000 0.88923  0.41606  0.41606  Biso   1.000  C
  C109     1.0000 0.11077  0.41606  0.41606  Biso   1.000  C
  C110     1.0000 0.88923  0.58394  0.41606  Biso   1.000  C
  C111     1.0000 0.11077  0.58394  0.58394  Biso   1.000  C
  C112     1.0000 0.88923  0.41606  0.58394  Biso   1.000  C
  C113     1.0000 0.41606  0.58394  0.88923  Biso   1.000  C
  C114     1.0000 0.58394  0.58394  0.11077  Biso   1.000  C
  C115     1.0000 0.58394  0.41606  0.88923  Biso   1.000  C
  C116     1.0000 0.41606  0.41606  0.11077  Biso   1.000  C
  C117     1.0000 0.58394  0.11077  0.58394  Biso   1.000  C
  C118     1.0000 0.58394  0.88923  0.41606  Biso   1.000  C
  C119     1.0000 0.41606  0.11077  0.41606  Biso   1.000  C
  C120     1.0000 0.41606  0.88923  0.58394  Biso   1.000  C
  C121     1.0000 0.40088  0.15694  0.59912  Biso   1.000  C
  C122     1.0000 0.59912  0.84306  0.59912  Biso   1.000  C
  C123     1.0000 0.59912  0.15694  0.40088  Biso   1.000  C
  C124     1.0000 0.40088  0.84306  0.40088  Biso   1.000  C
  C125     1.0000 0.59912  0.40088  0.15694  Biso   1.000  C
  C126     1.0000 0.59912  0.59912  0.84306  Biso   1.000  C
  C127     1.0000 0.40088  0.59912  0.15694  Biso   1.000  C
  C128     1.0000 0.40088  0.40088  0.84306  Biso   1.000  C
  C129     1.0000 0.15694  0.59912  0.40088  Biso   1.000  C
  C130     1.0000 0.84306  0.59912  0.59912  Biso   1.000  C
  C131     1.0000 0.15694  0.40088  0.59912  Biso   1.000  C
  C132     1.0000 0.84306  0.40088  0.40088  Biso   1.000  C
  C133     1.0000 0.15694  0.40088  0.40088  Biso   1.000  C
  C134     1.0000 0.84306  0.59912  0.40088  Biso   1.000  C
  C135     1.0000 0.15694  0.59912  0.59912  Biso   1.000  C
  C136     1.0000 0.84306  0.40088  0.59912  Biso   1.000  C
  C137     1.0000 0.40088  0.59912  0.84306  Biso   1.000  C
  C138     1.0000 0.59912  0.59912  0.15694  Biso   1.000  C
  C139     1.0000 0.59912  0.40088  0.84306  Biso   1.000  C
  C140     1.0000 0.40088  0.40088  0.15694  Biso   1.000  C
  C141     1.0000 0.59912  0.15694  0.59912  Biso   1.000  C
  C142     1.0000 0.59912  0.84306  0.40088  Biso   1.000  C
  C143     1.0000 0.40088  0.15694  0.40088  Biso   1.000  C
  C144     1.0000 0.40088  0.84306  0.59912  Biso   1.000  C
  C145     1.0000 0.36889  0.24429  0.63111  Biso   1.000  C
  C146     1.0000 0.63111  0.75571  0.63111  Biso   1.000  C
  C147     1.0000 0.63111  0.24429  0.36889  Biso   1.000  C
  C148     1.0000 0.36889  0.75571  0.36889  Biso   1.000  C
  C149     1.0000 0.63111  0.36889  0.24429  Biso   1.000  C
  C150     1.0000 0.63111  0.63111  0.75571  Biso   1.000  C
  C151     1.0000 0.36889  0.63111  0.24429  Biso   1.000  C
  C152     1.0000 0.36889  0.36889  0.75571  Biso   1.000  C
  C153     1.0000 0.24429  0.63111  0.36889  Biso   1.000  C
  C154     1.0000 0.75571  0.63111  0.63111  Biso   1.000  C
  C155     1.0000 0.24429  0.36889  0.63111  Biso   1.000  C
  C156     1.0000 0.75571  0.36889  0.36889  Biso   1.000  C
  C157     1.0000 0.24429  0.36889  0.36889  Biso   1.000  C
  C158     1.0000 0.75571  0.63111  0.36889  Biso   1.000  C
  C159     1.0000 0.24429  0.63111  0.63111  Biso   1.000  C
  C160     1.0000 0.75571  0.36889  0.63111  Biso   1.000  C
  C161     1.0000 0.36889  0.63111  0.75571  Biso   1.000  C
  C162     1.0000 0.63111  0.63111  0.24429  Biso   1.000  C
  C163     1.0000 0.63111  0.36889  0.75571  Biso   1.000  C
  C164     1.0000 0.36889  0.36889  0.24429  Biso   1.000  C
  C165     1.0000 0.63111  0.24429  0.63111  Biso   1.000  C
  C166     1.0000 0.63111  0.75571  0.36889  Biso   1.000  C
  C167     1.0000 0.36889  0.24429  0.36889  Biso   1.000  C
  C168     1.0000 0.36889  0.75571  0.63111  Biso   1.000  C
  C169     1.0000 0.34955  0.28918  0.65045  Biso   1.000  C
  C170     1.0000 0.65045  0.71082  0.65045  Biso   1.000  C
  C171     1.0000 0.65045  0.28918  0.34955  Biso   1.000  C
  C172     1.0000 0.34955  0.71082  0.34955  Biso   1.000  C
  C173     1.0000 0.65045  0.34955  0.28918  Biso   1.000  C
  C174     1.0000 0.65045  0.65045  0.71082  Biso   1.000  C
  C175     1.0000 0.34955  0.65045  0.28918  Biso   1.000  C
  C176     1.0000 0.34955  0.34955  0.71082  Biso   1.000  C
  C177     1.0000 0.28918  0.65045  0.34955  Biso   1.000  C
  C178     1.0000 0.71082  0.65045  0.65045  Biso   1.000  C
  C179     1.0000 0.28918  0.34955  0.65045  Biso   1.000  C
  C180     1.0000 0.71082  0.34955  0.34955  Biso   1.000  C
  C181     1.0000 0.28918  0.34955  0.34955  Biso   1.000  C
  C182     1.0000 0.71082  0.65045  0.34955  Biso   1.000  C
  C183     1.0000 0.28918  0.65045  0.65045  Biso   1.000  C
  C184     1.0000 0.71082  0.34955  0.65045  Biso   1.000  C
  C185     1.0000 0.34955  0.65045  0.71082  Biso   1.000  C
  C186     1.0000 0.65045  0.65045  0.28918  Biso   1.000  C
  C187     1.0000 0.65045  0.34955  0.71082  Biso   1.000  C
  C188     1.0000 0.34955  0.34955  0.28918  Biso   1.000  C
  C189     1.0000 0.65045  0.28918  0.65045  Biso   1.000  C
  C190     1.0000 0.65045  0.71082  0.34955  Biso   1.000  C
  C191     1.0000 0.34955  0.28918  0.34955  Biso   1.000  C
  C192     1.0000 0.34955  0.71082  0.65045  Biso   1.000  C
  C193     1.0000 0.36890  0.31025  0.68975  Biso   1.000  C
  C194     1.0000 0.63110  0.68975  0.68975  Biso   1.000  C
  C195     1.0000 0.63110  0.31025  0.31025  Biso   1.000  C
  C196     1.0000 0.36890  0.68975  0.31025  Biso   1.000  C
  C197     1.0000 0.68975  0.36890  0.31025  Biso   1.000  C
  C198     1.0000 0.68975  0.63110  0.68975  Biso   1.000  C
  C199     1.0000 0.31025  0.63110  0.31025  Biso   1.000  C
  C200     1.0000 0.31025  0.36890  0.68975  Biso   1.000  C
  C201     1.0000 0.31025  0.68975  0.36890  Biso   1.000  C
  C202     1.0000 0.68975  0.68975  0.63110  Biso   1.000  C
  C203     1.0000 0.31025  0.31025  0.63110  Biso   1.000  C
  C204     1.0000 0.68975  0.31025  0.36890  Biso   1.000  C
  C205     1.0000 0.31025  0.36890  0.31025  Biso   1.000  C
  C206     1.0000 0.68975  0.63110  0.31025  Biso   1.000  C
  C207     1.0000 0.31025  0.63110  0.68975  Biso   1.000  C
  C208     1.0000 0.68975  0.36890  0.68975  Biso   1.000  C
  C209     1.0000 0.36890  0.68975  0.68975  Biso   1.000  C
  C210     1.0000 0.63110  0.68975  0.31025  Biso   1.000  C
  C211     1.0000 0.63110  0.31025  0.68975  Biso   1.000  C
  C212     1.0000 0.36890  0.31025  0.31025  Biso   1.000  C
  C213     1.0000 0.68975  0.31025  0.63110  Biso   1.000  C
  C214     1.0000 0.68975  0.68975  0.36890  Biso   1.000  C
  C215     1.0000 0.31025  0.31025  0.36890  Biso   1.000  C
  C216     1.0000 0.31025  0.68975  0.63110  Biso   1.000  C
  H97      1.0000 0.39919  0.29584  0.70416  Biso   1.000  H
  H98      1.0000 0.60081  0.70416  0.70416  Biso   1.000  H
  H99      1.0000 0.60081  0.29584  0.29584  Biso   1.000  H
  H100     1.0000 0.39919  0.70416  0.29584  Biso   1.000  H
  H101     1.0000 0.70416  0.39919  0.29584  Biso   1.000  H
  H102     1.0000 0.70416  0.60081  0.70416  Biso   1.000  H
  H103     1.0000 0.29584  0.60081  0.29584  Biso   1.000  H
  H104     1.0000 0.29584  0.39919  0.70416  Biso   1.000  H
  H105     1.0000 0.29584  0.70416  0.39919  Biso   1.000  H
  H106     1.0000 0.70416  0.70416  0.60081  Biso   1.000  H
  H107     1.0000 0.29584  0.29584  0.60081  Biso   1.000  H
  H108     1.0000 0.70416  0.29584  0.39919  Biso   1.000  H
  H109     1.0000 0.29584  0.39919  0.29584  Biso   1.000  H
  H110     1.0000 0.70416  0.60081  0.29584  Biso   1.000  H
  H111     1.0000 0.29584  0.60081  0.70416  Biso   1.000  H
  H112     1.0000 0.70416  0.39919  0.70416  Biso   1.000  H
  H113     1.0000 0.39919  0.70416  0.70416  Biso   1.000  H
  H114     1.0000 0.60081  0.70416  0.29584  Biso   1.000  H
  H115     1.0000 0.60081  0.29584  0.70416  Biso   1.000  H
  H116     1.0000 0.39919  0.29584  0.29584  Biso   1.000  H
  H117     1.0000 0.70416  0.29584  0.60081  Biso   1.000  H
  H118     1.0000 0.70416  0.70416  0.39919  Biso   1.000  H
  H119     1.0000 0.29584  0.29584  0.39919  Biso   1.000  H
  H120     1.0000 0.29584  0.70416  0.60081  Biso   1.000  H
  N97      1.0000 0.44781  0.03445  0.06889  Biso   1.000  N
  N98      1.0000 0.54125  0.03445  0.90885  Biso   1.000  N
  N99      1.0000 0.44781  0.94231  0.90885  Biso   1.000  N
  N100     1.0000 0.54125  0.94231  0.06889  Biso   1.000  N
  N101     1.0000 0.07455  0.53510  0.94280  Biso   1.000  N
  N102     1.0000 0.91451  0.44166  0.94280  Biso   1.000  N
  N103     1.0000 0.91451  0.53510  0.03494  Biso   1.000  N
  N104     1.0000 0.07455  0.44166  0.03494  Biso   1.000  N
  N105     1.0000 0.94846  0.90836  0.44215  Biso   1.000  N
  N106     1.0000 0.94846  0.06840  0.53559  Biso   1.000  N
  N107     1.0000 0.04060  0.06840  0.44215  Biso   1.000  N
  N108     1.0000 0.04060  0.90836  0.53559  Biso   1.000  N
  N109     1.0000 0.07455  0.94231  0.44215  Biso   1.000  N
  N110     1.0000 0.91451  0.94231  0.53559  Biso   1.000  N
  N111     1.0000 0.91451  0.03445  0.44215  Biso   1.000  N
  N112     1.0000 0.07455  0.03445  0.53559  Biso   1.000  N
  N113     1.0000 0.94846  0.44166  0.06889  Biso   1.000  N
  N114     1.0000 0.94846  0.53510  0.90885  Biso   1.000  N
  N115     1.0000 0.04060  0.44166  0.90885  Biso   1.000  N
  N116     1.0000 0.04060  0.53510  0.06889  Biso   1.000  N
  N117     1.0000 0.44781  0.06840  0.94280  Biso   1.000  N
  N118     1.0000 0.54125  0.90836  0.94280  Biso   1.000  N
  N119     1.0000 0.44781  0.90836  0.03494  Biso   1.000  N
  N120     1.0000 0.54125  0.06840  0.03494  Biso   1.000  N
  N121     1.0000 0.54125  0.94231  0.90885  Biso   1.000  N
  N122     1.0000 0.44781  0.94231  0.06889  Biso   1.000  N
  N123     1.0000 0.54125  0.03445  0.06889  Biso   1.000  N
  N124     1.0000 0.44781  0.03445  0.90885  Biso   1.000  N
  N125     1.0000 0.91451  0.44166  0.03494  Biso   1.000  N
  N126     1.0000 0.07455  0.53510  0.03494  Biso   1.000  N
  N127     1.0000 0.07455  0.44166  0.94280  Biso   1.000  N
  N128     1.0000 0.91451  0.53510  0.94280  Biso   1.000  N
  N129     1.0000 0.04060  0.06840  0.53559  Biso   1.000  N
  N130     1.0000 0.04060  0.90836  0.44215  Biso   1.000  N
  N131     1.0000 0.94846  0.90836  0.53559  Biso   1.000  N
  N132     1.0000 0.94846  0.06840  0.44215  Biso   1.000  N
  N133     1.0000 0.91451  0.03445  0.53559  Biso   1.000  N
  N134     1.0000 0.07455  0.03445  0.44215  Biso   1.000  N
  N135     1.0000 0.07455  0.94231  0.53559  Biso   1.000  N
  N136     1.0000 0.91451  0.94231  0.44215  Biso   1.000  N
  N137     1.0000 0.04060  0.53510  0.90885  Biso   1.000  N
  N138     1.0000 0.04060  0.44166  0.06889  Biso   1.000  N
  N139     1.0000 0.94846  0.53510  0.06889  Biso   1.000  N
  N140     1.0000 0.94846  0.44166  0.90885  Biso   1.000  N
  N141     1.0000 0.54125  0.90836  0.03494  Biso   1.000  N
  N142     1.0000 0.44781  0.06840  0.03494  Biso   1.000  N
  N143     1.0000 0.54125  0.06840  0.94280  Biso   1.000  N
  N144     1.0000 0.44781  0.90836  0.94280  Biso   1.000  N
  N145     1.0000 0.40600  0.03869  0.09218  Biso   1.000  N
  N146     1.0000 0.58306  0.03869  0.88556  Biso   1.000  N
  N147     1.0000 0.40600  0.93807  0.88556  Biso   1.000  N
  N148     1.0000 0.58306  0.93807  0.09218  Biso   1.000  N
  N149     1.0000 0.09784  0.57691  0.93856  Biso   1.000  N
  N150     1.0000 0.89122  0.39985  0.93856  Biso   1.000  N
  N151     1.0000 0.89122  0.57691  0.03918  Biso   1.000  N
  N152     1.0000 0.09784  0.39985  0.03918  Biso   1.000  N
  N153     1.0000 0.94422  0.88507  0.40034  Biso   1.000  N
  N154     1.0000 0.94422  0.09169  0.57740  Biso   1.000  N
  N155     1.0000 0.04484  0.09169  0.40034  Biso   1.000  N
  N156     1.0000 0.04484  0.88507  0.57740  Biso   1.000  N
  N157     1.0000 0.09784  0.93807  0.40034  Biso   1.000  N
  N158     1.0000 0.89122  0.93807  0.57740  Biso   1.000  N
  N159     1.0000 0.89122  0.03869  0.40034  Biso   1.000  N
  N160     1.0000 0.09784  0.03869  0.57740  Biso   1.000  N
  N161     1.0000 0.94422  0.39985  0.09218  Biso   1.000  N
  N162     1.0000 0.94422  0.57691  0.88556  Biso   1.000  N
  N163     1.0000 0.04484  0.39985  0.88556  Biso   1.000  N
  N164     1.0000 0.04484  0.57691  0.09218  Biso   1.000  N
  N165     1.0000 0.40600  0.09169  0.93856  Biso   1.000  N
  N166     1.0000 0.58306  0.88507  0.93856  Biso   1.000  N
  N167     1.0000 0.40600  0.88507  0.03918  Biso   1.000  N
  N168     1.0000 0.58306  0.09169  0.03918  Biso   1.000  N
  N169     1.0000 0.58306  0.93807  0.88556  Biso   1.000  N
  N170     1.0000 0.40600  0.93807  0.09218  Biso   1.000  N
  N171     1.0000 0.58306  0.03869  0.09218  Biso   1.000  N
  N172     1.0000 0.40600  0.03869  0.88556  Biso   1.000  N
  N173     1.0000 0.89122  0.39985  0.03918  Biso   1.000  N
  N174     1.0000 0.09784  0.57691  0.03918  Biso   1.000  N
  N175     1.0000 0.09784  0.39985  0.93856  Biso   1.000  N
  N176     1.0000 0.89122  0.57691  0.93856  Biso   1.000  N
  N177     1.0000 0.04484  0.09169  0.57740  Biso   1.000  N
  N178     1.0000 0.04484  0.88507  0.40034  Biso   1.000  N
  N179     1.0000 0.94422  0.88507  0.57740  Biso   1.000  N
  N180     1.0000 0.94422  0.09169  0.40034  Biso   1.000  N
  N181     1.0000 0.89122  0.03869  0.57740  Biso   1.000  N
  N182     1.0000 0.09784  0.03869  0.40034  Biso   1.000  N
  N183     1.0000 0.09784  0.93807  0.57740  Biso   1.000  N
  N184     1.0000 0.89122  0.93807  0.40034  Biso   1.000  N
  N185     1.0000 0.04484  0.57691  0.88556  Biso   1.000  N
  N186     1.0000 0.04484  0.39985  0.09218  Biso   1.000  N
  N187     1.0000 0.94422  0.57691  0.09218  Biso   1.000  N
  N188     1.0000 0.94422  0.39985  0.88556  Biso   1.000  N
  N189     1.0000 0.58306  0.88507  0.03918  Biso   1.000  N
  N190     1.0000 0.40600  0.09169  0.03918  Biso   1.000  N
  N191     1.0000 0.58306  0.09169  0.93856  Biso   1.000  N
  N192     1.0000 0.40600  0.88507  0.93856  Biso   1.000  N
  C217     1.0000 0.31549  0.06570  0.12480  Biso   1.000  C
  C218     1.0000 0.67357  0.06570  0.85294  Biso   1.000  C
  C219     1.0000 0.31549  0.91106  0.85294  Biso   1.000  C
  C220     1.0000 0.67357  0.91106  0.12480  Biso   1.000  C
  C221     1.0000 0.13046  0.66742  0.91155  Biso   1.000  C
  C222     1.0000 0.85860  0.30934  0.91155  Biso   1.000  C
  C223     1.0000 0.85860  0.66742  0.06619  Biso   1.000  C
  C224     1.0000 0.13046  0.30934  0.06619  Biso   1.000  C
  C225     1.0000 0.91721  0.85245  0.30983  Biso   1.000  C
  C226     1.0000 0.91721  0.12431  0.66791  Biso   1.000  C
  C227     1.0000 0.07185  0.12431  0.30983  Biso   1.000  C
  C228     1.0000 0.07185  0.85245  0.66791  Biso   1.000  C
  C229     1.0000 0.13046  0.91106  0.30983  Biso   1.000  C
  C230     1.0000 0.85860  0.91106  0.66791  Biso   1.000  C
  C231     1.0000 0.85860  0.06570  0.30983  Biso   1.000  C
  C232     1.0000 0.13046  0.06570  0.66791  Biso   1.000  C
  C233     1.0000 0.91721  0.30934  0.12480  Biso   1.000  C
  C234     1.0000 0.91721  0.66742  0.85294  Biso   1.000  C
  C235     1.0000 0.07185  0.30934  0.85294  Biso   1.000  C
  C236     1.0000 0.07185  0.66742  0.12480  Biso   1.000  C
  C237     1.0000 0.31549  0.12431  0.91155  Biso   1.000  C
  C238     1.0000 0.67357  0.85245  0.91155  Biso   1.000  C
  C239     1.0000 0.31549  0.85245  0.06619  Biso   1.000  C
  C240     1.0000 0.67357  0.12431  0.06619  Biso   1.000  C
  C241     1.0000 0.67357  0.91106  0.85294  Biso   1.000  C
  C242     1.0000 0.31549  0.91106  0.12480  Biso   1.000  C
  C243     1.0000 0.67357  0.06570  0.12480  Biso   1.000  C
  C244     1.0000 0.31549  0.06570  0.85294  Biso   1.000  C
  C245     1.0000 0.85860  0.30934  0.06619  Biso   1.000  C
  C246     1.0000 0.13046  0.66742  0.06619  Biso   1.000  C
  C247     1.0000 0.13046  0.30934  0.91155  Biso   1.000  C
  C248     1.0000 0.85860  0.66742  0.91155  Biso   1.000  C
  C249     1.0000 0.07185  0.12431  0.66791  Biso   1.000  C
  C250     1.0000 0.07185  0.85245  0.30983  Biso   1.000  C
  C251     1.0000 0.91721  0.85245  0.66791  Biso   1.000  C
  C252     1.0000 0.91721  0.12431  0.30983  Biso   1.000  C
  C253     1.0000 0.85860  0.06570  0.66791  Biso   1.000  C
  C254     1.0000 0.13046  0.06570  0.30983  Biso   1.000  C
  C255     1.0000 0.13046  0.91106  0.66791  Biso   1.000  C
  C256     1.0000 0.85860  0.91106  0.30983  Biso   1.000  C
  C257     1.0000 0.07185  0.66742  0.85294  Biso   1.000  C
  C258     1.0000 0.07185  0.30934  0.12480  Biso   1.000  C
  C259     1.0000 0.91721  0.66742  0.12480  Biso   1.000  C
  C260     1.0000 0.91721  0.30934  0.85294  Biso   1.000  C
  C261     1.0000 0.67357  0.85245  0.06619  Biso   1.000  C
  C262     1.0000 0.31549  0.12431  0.06619  Biso   1.000  C
  C263     1.0000 0.67357  0.12431  0.91155  Biso   1.000  C
  C264     1.0000 0.31549  0.85245  0.91155  Biso   1.000  C
  C265     1.0000 0.27276  0.08121  0.14050  Biso   1.000  C
  C266     1.0000 0.71630  0.08121  0.83724  Biso   1.000  C
  C267     1.0000 0.27276  0.89555  0.83724  Biso   1.000  C
  C268     1.0000 0.71630  0.89555  0.14050  Biso   1.000  C
  C269     1.0000 0.14616  0.71015  0.89604  Biso   1.000  C
  C270     1.0000 0.84290  0.26661  0.89604  Biso   1.000  C
  C271     1.0000 0.84290  0.71015  0.08170  Biso   1.000  C
  C272     1.0000 0.14616  0.26661  0.08170  Biso   1.000  C
  C273     1.0000 0.90170  0.83675  0.26710  Biso   1.000  C
  C274     1.0000 0.90170  0.14001  0.71064  Biso   1.000  C
  C275     1.0000 0.08736  0.14001  0.26710  Biso   1.000  C
  C276     1.0000 0.08736  0.83675  0.71064  Biso   1.000  C
  C277     1.0000 0.14616  0.89555  0.26710  Biso   1.000  C
  C278     1.0000 0.84290  0.89555  0.71064  Biso   1.000  C
  C279     1.0000 0.84290  0.08121  0.26710  Biso   1.000  C
  C280     1.0000 0.14616  0.08121  0.71064  Biso   1.000  C
  C281     1.0000 0.90170  0.26661  0.14050  Biso   1.000  C
  C282     1.0000 0.90170  0.71015  0.83724  Biso   1.000  C
  C283     1.0000 0.08736  0.26661  0.83724  Biso   1.000  C
  C284     1.0000 0.08736  0.71015  0.14050  Biso   1.000  C
  C285     1.0000 0.27276  0.14001  0.89604  Biso   1.000  C
  C286     1.0000 0.71630  0.83675  0.89604  Biso   1.000  C
  C287     1.0000 0.27276  0.83675  0.08170  Biso   1.000  C
  C288     1.0000 0.71630  0.14001  0.08170  Biso   1.000  C
  C289     1.0000 0.71630  0.89555  0.83724  Biso   1.000  C
  C290     1.0000 0.27276  0.89555  0.14050  Biso   1.000  C
  C291     1.0000 0.71630  0.08121  0.14050  Biso   1.000  C
  C292     1.0000 0.27276  0.08121  0.83724  Biso   1.000  C
  C293     1.0000 0.84290  0.26661  0.08170  Biso   1.000  C
  C294     1.0000 0.14616  0.71015  0.08170  Biso   1.000  C
  C295     1.0000 0.14616  0.26661  0.89604  Biso   1.000  C
  C296     1.0000 0.84290  0.71015  0.89604  Biso   1.000  C
  C297     1.0000 0.08736  0.14001  0.71064  Biso   1.000  C
  C298     1.0000 0.08736  0.83675  0.26710  Biso   1.000  C
  C299     1.0000 0.90170  0.83675  0.71064  Biso   1.000  C
  C300     1.0000 0.90170  0.14001  0.26710  Biso   1.000  C
  C301     1.0000 0.84290  0.08121  0.71064  Biso   1.000  C
  C302     1.0000 0.14616  0.08121  0.26710  Biso   1.000  C
  C303     1.0000 0.14616  0.89555  0.71064  Biso   1.000  C
  C304     1.0000 0.84290  0.89555  0.26710  Biso   1.000  C
  C305     1.0000 0.08736  0.71015  0.83724  Biso   1.000  C
  C306     1.0000 0.08736  0.26661  0.14050  Biso   1.000  C
  C307     1.0000 0.90170  0.71015  0.14050  Biso   1.000  C
  C308     1.0000 0.90170  0.26661  0.83724  Biso   1.000  C
  C309     1.0000 0.71630  0.83675  0.08170  Biso   1.000  C
  C310     1.0000 0.27276  0.14001  0.08170  Biso   1.000  C
  C311     1.0000 0.71630  0.14001  0.89604  Biso   1.000  C
  C312     1.0000 0.27276  0.83675  0.89604  Biso   1.000  C
  H121     1.0000 0.33150  0.03676  0.14209  Biso   1.000  H
  H122     1.0000 0.65756  0.03676  0.83565  Biso   1.000  H
  H123     1.0000 0.33150  0.94000  0.83565  Biso   1.000  H
  H124     1.0000 0.65756  0.94000  0.14209  Biso   1.000  H
  H125     1.0000 0.14775  0.65141  0.94049  Biso   1.000  H
  H126     1.0000 0.84131  0.32535  0.94049  Biso   1.000  H
  H127     1.0000 0.84131  0.65141  0.03725  Biso   1.000  H
  H128     1.0000 0.14775  0.32535  0.03725  Biso   1.000  H
  H129     1.0000 0.94615  0.83516  0.32584  Biso   1.000  H
  H130     1.0000 0.94615  0.14160  0.65190  Biso   1.000  H
  H131     1.0000 0.04291  0.14160  0.32584  Biso   1.000  H
  H132     1.0000 0.04291  0.83516  0.65190  Biso   1.000  H
  H133     1.0000 0.14775  0.94000  0.32584  Biso   1.000  H
  H134     1.0000 0.84131  0.94000  0.65190  Biso   1.000  H
  H135     1.0000 0.84131  0.03676  0.32584  Biso   1.000  H
  H136     1.0000 0.14775  0.03676  0.65190  Biso   1.000  H
  H137     1.0000 0.94615  0.32535  0.14209  Biso   1.000  H
  H138     1.0000 0.94615  0.65141  0.83565  Biso   1.000  H
  H139     1.0000 0.04291  0.32535  0.83565  Biso   1.000  H
  H140     1.0000 0.04291  0.65141  0.14209  Biso   1.000  H
  H141     1.0000 0.33150  0.14160  0.94049  Biso   1.000  H
  H142     1.0000 0.65756  0.83516  0.94049  Biso   1.000  H
  H143     1.0000 0.33150  0.83516  0.03725  Biso   1.000  H
  H144     1.0000 0.65756  0.14160  0.03725  Biso   1.000  H
  H145     1.0000 0.65756  0.94000  0.83565  Biso   1.000  H
  H146     1.0000 0.33150  0.94000  0.14209  Biso   1.000  H
  H147     1.0000 0.65756  0.03676  0.14209  Biso   1.000  H
  H148     1.0000 0.33150  0.03676  0.83565  Biso   1.000  H
  H149     1.0000 0.84131  0.32535  0.03725  Biso   1.000  H
  H150     1.0000 0.14775  0.65141  0.03725  Biso   1.000  H
  H151     1.0000 0.14775  0.32535  0.94049  Biso   1.000  H
  H152     1.0000 0.84131  0.65141  0.94049  Biso   1.000  H
  H153     1.0000 0.04291  0.14160  0.65190  Biso   1.000  H
  H154     1.0000 0.04291  0.83516  0.32584  Biso   1.000  H
  H155     1.0000 0.94615  0.83516  0.65190  Biso   1.000  H
  H156     1.0000 0.94615  0.14160  0.32584  Biso   1.000  H
  H157     1.0000 0.84131  0.03676  0.65190  Biso   1.000  H
  H158     1.0000 0.14775  0.03676  0.32584  Biso   1.000  H
  H159     1.0000 0.14775  0.94000  0.65190  Biso   1.000  H
  H160     1.0000 0.84131  0.94000  0.32584  Biso   1.000  H
  H161     1.0000 0.04291  0.65141  0.83565  Biso   1.000  H
  H162     1.0000 0.04291  0.32535  0.14209  Biso   1.000  H
  H163     1.0000 0.94615  0.65141  0.14209  Biso   1.000  H
  H164     1.0000 0.94615  0.32535  0.83565  Biso   1.000  H
  H165     1.0000 0.65756  0.83516  0.03725  Biso   1.000  H
  H166     1.0000 0.33150  0.14160  0.03725  Biso   1.000  H
  H167     1.0000 0.65756  0.14160  0.94049  Biso   1.000  H
  H168     1.0000 0.33150  0.83516  0.94049  Biso   1.000  H
  H169     1.0000 0.25895  0.06246  0.16928  Biso   1.000  H
  H170     1.0000 0.73011  0.06246  0.80846  Biso   1.000  H
  H171     1.0000 0.25895  0.91430  0.80846  Biso   1.000  H
  H172     1.0000 0.73011  0.91430  0.16928  Biso   1.000  H
  H173     1.0000 0.17494  0.72396  0.91479  Biso   1.000  H
  H174     1.0000 0.81412  0.25280  0.91479  Biso   1.000  H
  H175     1.0000 0.81412  0.72396  0.06295  Biso   1.000  H
  H176     1.0000 0.17494  0.25280  0.06295  Biso   1.000  H
  H177     1.0000 0.92045  0.80797  0.25329  Biso   1.000  H
  H178     1.0000 0.92045  0.16879  0.72445  Biso   1.000  H
  H179     1.0000 0.06861  0.16879  0.25329  Biso   1.000  H
  H180     1.0000 0.06861  0.80797  0.72445  Biso   1.000  H
  H181     1.0000 0.17494  0.91430  0.25329  Biso   1.000  H
  H182     1.0000 0.81412  0.91430  0.72445  Biso   1.000  H
  H183     1.0000 0.81412  0.06246  0.25329  Biso   1.000  H
  H184     1.0000 0.17494  0.06246  0.72445  Biso   1.000  H
  H185     1.0000 0.92045  0.25280  0.16928  Biso   1.000  H
  H186     1.0000 0.92045  0.72396  0.80846  Biso   1.000  H
  H187     1.0000 0.06861  0.25280  0.80846  Biso   1.000  H
  H188     1.0000 0.06861  0.72396  0.16928  Biso   1.000  H
  H189     1.0000 0.25895  0.16879  0.91479  Biso   1.000  H
  H190     1.0000 0.73011  0.80797  0.91479  Biso   1.000  H
  H191     1.0000 0.25895  0.80797  0.06295  Biso   1.000  H
  H192     1.0000 0.73011  0.16879  0.06295  Biso   1.000  H
  H193     1.0000 0.73011  0.91430  0.80846  Biso   1.000  H
  H194     1.0000 0.25895  0.91430  0.16928  Biso   1.000  H
  H195     1.0000 0.73011  0.06246  0.16928  Biso   1.000  H
  H196     1.0000 0.25895  0.06246  0.80846  Biso   1.000  H
  H197     1.0000 0.81412  0.25280  0.06295  Biso   1.000  H
  H198     1.0000 0.17494  0.72396  0.06295  Biso   1.000  H
  H199     1.0000 0.17494  0.25280  0.91479  Biso   1.000  H
  H200     1.0000 0.81412  0.72396  0.91479  Biso   1.000  H
  H201     1.0000 0.06861  0.16879  0.72445  Biso   1.000  H
  H202     1.0000 0.06861  0.80797  0.25329  Biso   1.000  H
  H203     1.0000 0.92045  0.80797  0.72445  Biso   1.000  H
  H204     1.0000 0.92045  0.16879  0.25329  Biso   1.000  H
  H205     1.0000 0.81412  0.06246  0.72445  Biso   1.000  H
  H206     1.0000 0.17494  0.06246  0.25329  Biso   1.000  H
  H207     1.0000 0.17494  0.91430  0.72445  Biso   1.000  H
  H208     1.0000 0.81412  0.91430  0.25329  Biso   1.000  H
  H209     1.0000 0.06861  0.72396  0.80846  Biso   1.000  H
  H210     1.0000 0.06861  0.25280  0.16928  Biso   1.000  H
  H211     1.0000 0.92045  0.72396  0.16928  Biso   1.000  H
  H212     1.0000 0.92045  0.25280  0.80846  Biso   1.000  H
  H213     1.0000 0.73011  0.80797  0.06295  Biso   1.000  H
  H214     1.0000 0.25895  0.16879  0.06295  Biso   1.000  H
  H215     1.0000 0.73011  0.16879  0.91479  Biso   1.000  H
  H216     1.0000 0.25895  0.80797  0.91479  Biso   1.000  H
  Cu37     1.0000 0.49453  0.98838  0.08706  Biso   1.000  Cu
  Cu38     1.0000 0.49453  0.98838  0.89068  Biso   1.000  Cu
  Cu39     1.0000 0.09272  0.48838  0.98887  Biso   1.000  Cu
  Cu40     1.0000 0.89634  0.48838  0.98887  Biso   1.000  Cu
  Cu41     1.0000 0.99453  0.89019  0.48887  Biso   1.000  Cu
  Cu42     1.0000 0.99453  0.08657  0.48887  Biso   1.000  Cu
  Cu43     1.0000 0.09272  0.98838  0.48887  Biso   1.000  Cu
  Cu44     1.0000 0.89634  0.98838  0.48887  Biso   1.000  Cu
  Cu45     1.0000 0.99453  0.48838  0.08706  Biso   1.000  Cu
  Cu46     1.0000 0.99453  0.48838  0.89068  Biso   1.000  Cu
  Cu47     1.0000 0.49453  0.08657  0.98887  Biso   1.000  Cu
  Cu48     1.0000 0.49453  0.89019  0.98887  Biso   1.000  Cu
  Cl16     1.0000 0.49453  0.98838  0.16444  Biso   1.000  Cl
  Cl17     1.0000 0.49453  0.98838  0.81330  Biso   1.000  Cl
  Cl18     1.0000 0.17010  0.48838  0.98887  Biso   1.000  Cl
  Cl19     1.0000 0.81896  0.48838  0.98887  Biso   1.000  Cl
  Cl20     1.0000 0.99453  0.81281  0.48887  Biso   1.000  Cl
  Cl21     1.0000 0.99453  0.16395  0.48887  Biso   1.000  Cl
  Cl22     1.0000 0.17010  0.98838  0.48887  Biso   1.000  Cl
  Cl23     1.0000 0.81896  0.98838  0.48887  Biso   1.000  Cl
  Cl24     1.0000 0.99453  0.48838  0.16444  Biso   1.000  Cl
  Cl25     1.0000 0.99453  0.48838  0.81330  Biso   1.000  Cl
  Cl26     1.0000 0.49453  0.16395  0.98887  Biso   1.000  Cl
  Cl27     1.0000 0.49453  0.81281  0.98887  Biso   1.000  Cl
  Cl28     1.0000 0.49453  0.98838  0.98887  Biso   1.000  Cl
  Cl29     1.0000 0.99453  0.48838  0.98887  Biso   1.000  Cl
  Cl30     1.0000 0.99453  0.98838  0.48887  Biso   1.000  Cl
  Cu49     1.0000 0.35993  0.98838  0.27314  Biso   1.000  Cu
  Cu50     1.0000 0.62913  0.98838  0.70460  Biso   1.000  Cu
  Cu51     1.0000 0.35993  0.98838  0.70460  Biso   1.000  Cu
  Cu52     1.0000 0.62913  0.98838  0.27314  Biso   1.000  Cu
  Cu53     1.0000 0.27880  0.62298  0.98887  Biso   1.000  Cu
  Cu54     1.0000 0.71026  0.35378  0.98887  Biso   1.000  Cu
  Cu55     1.0000 0.71026  0.62298  0.98887  Biso   1.000  Cu
  Cu56     1.0000 0.27880  0.35378  0.98887  Biso   1.000  Cu
  Cu57     1.0000 0.99453  0.70411  0.35427  Biso   1.000  Cu
  Cu58     1.0000 0.99453  0.27265  0.62347  Biso   1.000  Cu
  Cu59     1.0000 0.99453  0.27265  0.35427  Biso   1.000  Cu
  Cu60     1.0000 0.99453  0.70411  0.62347  Biso   1.000  Cu
  Cu61     1.0000 0.27880  0.98838  0.35427  Biso   1.000  Cu
  Cu62     1.0000 0.71026  0.98838  0.62347  Biso   1.000  Cu
  Cu63     1.0000 0.71026  0.98838  0.35427  Biso   1.000  Cu
  Cu64     1.0000 0.27880  0.98838  0.62347  Biso   1.000  Cu
  Cu65     1.0000 0.99453  0.35378  0.27314  Biso   1.000  Cu
  Cu66     1.0000 0.99453  0.62298  0.70460  Biso   1.000  Cu
  Cu67     1.0000 0.99453  0.35378  0.70460  Biso   1.000  Cu
  Cu68     1.0000 0.99453  0.62298  0.27314  Biso   1.000  Cu
  Cu69     1.0000 0.35993  0.27265  0.98887  Biso   1.000  Cu
  Cu70     1.0000 0.62913  0.70411  0.98887  Biso   1.000  Cu
  Cu71     1.0000 0.35993  0.70411  0.98887  Biso   1.000  Cu
  Cu72     1.0000 0.62913  0.27265  0.98887  Biso   1.000  Cu
  C313     1.0000 0.38376  0.07232  0.07281  Biso   1.000  C
  C314     1.0000 0.60530  0.07232  0.90493  Biso   1.000  C
  C315     1.0000 0.38376  0.90444  0.90493  Biso   1.000  C
  C316     1.0000 0.60530  0.90444  0.07281  Biso   1.000  C
  C317     1.0000 0.07847  0.59915  0.90493  Biso   1.000  C
  C318     1.0000 0.91059  0.37761  0.90493  Biso   1.000  C
  C319     1.0000 0.91059  0.59915  0.07281  Biso   1.000  C
  C320     1.0000 0.07847  0.37761  0.07281  Biso   1.000  C
  C321     1.0000 0.91059  0.90444  0.37810  Biso   1.000  C
  C322     1.0000 0.91059  0.07232  0.59964  Biso   1.000  C
  C323     1.0000 0.07847  0.07232  0.37810  Biso   1.000  C
  C324     1.0000 0.07847  0.90444  0.59964  Biso   1.000  C
  C325     1.0000 0.07847  0.90444  0.37810  Biso   1.000  C
  C326     1.0000 0.91059  0.90444  0.59964  Biso   1.000  C
  C327     1.0000 0.91059  0.07232  0.37810  Biso   1.000  C
  C328     1.0000 0.07847  0.07232  0.59964  Biso   1.000  C
  C329     1.0000 0.91059  0.37761  0.07281  Biso   1.000  C
  C330     1.0000 0.91059  0.59915  0.90493  Biso   1.000  C
  C331     1.0000 0.07847  0.37761  0.90493  Biso   1.000  C
  C332     1.0000 0.07847  0.59915  0.07281  Biso   1.000  C
  C333     1.0000 0.38376  0.07232  0.90493  Biso   1.000  C
  C334     1.0000 0.60530  0.90444  0.90493  Biso   1.000  C
  C335     1.0000 0.38376  0.90444  0.07281  Biso   1.000  C
  C336     1.0000 0.60530  0.07232  0.07281  Biso   1.000  C
  C337     1.0000 0.33759  0.08750  0.08799  Biso   1.000  C
  C338     1.0000 0.65147  0.08750  0.88975  Biso   1.000  C
  C339     1.0000 0.33759  0.88926  0.88975  Biso   1.000  C
  C340     1.0000 0.65147  0.88926  0.08799  Biso   1.000  C
  C341     1.0000 0.09365  0.64532  0.88975  Biso   1.000  C
  C342     1.0000 0.89541  0.33144  0.88975  Biso   1.000  C
  C343     1.0000 0.89541  0.64532  0.08799  Biso   1.000  C
  C344     1.0000 0.09365  0.33144  0.08799  Biso   1.000  C
  C345     1.0000 0.89541  0.88926  0.33193  Biso   1.000  C
  C346     1.0000 0.89541  0.08750  0.64581  Biso   1.000  C
  C347     1.0000 0.09365  0.08750  0.33193  Biso   1.000  C
  C348     1.0000 0.09365  0.88926  0.64581  Biso   1.000  C
  C349     1.0000 0.09365  0.88926  0.33193  Biso   1.000  C
  C350     1.0000 0.89541  0.88926  0.64581  Biso   1.000  C
  C351     1.0000 0.89541  0.08750  0.33193  Biso   1.000  C
  C352     1.0000 0.09365  0.08750  0.64581  Biso   1.000  C
  C353     1.0000 0.89541  0.33144  0.08799  Biso   1.000  C
  C354     1.0000 0.89541  0.64532  0.88975  Biso   1.000  C
  C355     1.0000 0.09365  0.33144  0.88975  Biso   1.000  C
  C356     1.0000 0.09365  0.64532  0.08799  Biso   1.000  C
  C357     1.0000 0.33759  0.08750  0.88975  Biso   1.000  C
  C358     1.0000 0.65147  0.88926  0.88975  Biso   1.000  C
  C359     1.0000 0.33759  0.88926  0.08799  Biso   1.000  C
  C360     1.0000 0.65147  0.08750  0.08799  Biso   1.000  C
  C361     1.0000 0.25024  0.11949  0.11998  Biso   1.000  C
  C362     1.0000 0.73882  0.11949  0.85776  Biso   1.000  C
  C363     1.0000 0.25024  0.85727  0.85776  Biso   1.000  C
  C364     1.0000 0.73882  0.85727  0.11998  Biso   1.000  C
  C365     1.0000 0.12564  0.73267  0.85776  Biso   1.000  C
  C366     1.0000 0.86342  0.24409  0.85776  Biso   1.000  C
  C367     1.0000 0.86342  0.73267  0.11998  Biso   1.000  C
  C368     1.0000 0.12564  0.24409  0.11998  Biso   1.000  C
  C369     1.0000 0.86342  0.85727  0.24458  Biso   1.000  C
  C370     1.0000 0.86342  0.11949  0.73316  Biso   1.000  C
  C371     1.0000 0.12564  0.11949  0.24458  Biso   1.000  C
  C372     1.0000 0.12564  0.85727  0.73316  Biso   1.000  C
  C373     1.0000 0.12564  0.85727  0.24458  Biso   1.000  C
  C374     1.0000 0.86342  0.85727  0.73316  Biso   1.000  C
  C375     1.0000 0.86342  0.11949  0.24458  Biso   1.000  C
  C376     1.0000 0.12564  0.11949  0.73316  Biso   1.000  C
  C377     1.0000 0.86342  0.24409  0.11998  Biso   1.000  C
  C378     1.0000 0.86342  0.73267  0.85776  Biso   1.000  C
  C379     1.0000 0.12564  0.24409  0.85776  Biso   1.000  C
  C380     1.0000 0.12564  0.73267  0.11998  Biso   1.000  C
  C381     1.0000 0.25024  0.11949  0.85776  Biso   1.000  C
  C382     1.0000 0.73882  0.85727  0.85776  Biso   1.000  C
  C383     1.0000 0.25024  0.85727  0.11998  Biso   1.000  C
  C384     1.0000 0.73882  0.11949  0.11998  Biso   1.000  C
  C385     1.0000 0.20535  0.13883  0.13932  Biso   1.000  C
  C386     1.0000 0.78371  0.13883  0.83842  Biso   1.000  C
  C387     1.0000 0.20535  0.83793  0.83842  Biso   1.000  C
  C388     1.0000 0.78371  0.83793  0.13932  Biso   1.000  C
  C389     1.0000 0.14498  0.77756  0.83842  Biso   1.000  C
  C390     1.0000 0.84408  0.19920  0.83842  Biso   1.000  C
  C391     1.0000 0.84408  0.77756  0.13932  Biso   1.000  C
  C392     1.0000 0.14498  0.19920  0.13932  Biso   1.000  C
  C393     1.0000 0.84408  0.83793  0.19969  Biso   1.000  C
  C394     1.0000 0.84408  0.13883  0.77805  Biso   1.000  C
  C395     1.0000 0.14498  0.13883  0.19969  Biso   1.000  C
  C396     1.0000 0.14498  0.83793  0.77805  Biso   1.000  C
  C397     1.0000 0.14498  0.83793  0.19969  Biso   1.000  C
  C398     1.0000 0.84408  0.83793  0.77805  Biso   1.000  C
  C399     1.0000 0.84408  0.13883  0.19969  Biso   1.000  C
  C400     1.0000 0.14498  0.13883  0.77805  Biso   1.000  C
  C401     1.0000 0.84408  0.19920  0.13932  Biso   1.000  C
  C402     1.0000 0.84408  0.77756  0.83842  Biso   1.000  C
  C403     1.0000 0.14498  0.19920  0.83842  Biso   1.000  C
  C404     1.0000 0.14498  0.77756  0.13932  Biso   1.000  C
  C405     1.0000 0.20535  0.13883  0.83842  Biso   1.000  C
  C406     1.0000 0.78371  0.83793  0.83842  Biso   1.000  C
  C407     1.0000 0.20535  0.83793  0.13932  Biso   1.000  C
  C408     1.0000 0.78371  0.13883  0.13932  Biso   1.000  C
  C409     1.0000 0.18428  0.17813  0.11997  Biso   1.000  C
  C410     1.0000 0.80478  0.17813  0.85777  Biso   1.000  C
  C411     1.0000 0.18428  0.79863  0.85777  Biso   1.000  C
  C412     1.0000 0.80478  0.79863  0.11997  Biso   1.000  C
  C413     1.0000 0.12563  0.79863  0.79912  Biso   1.000  C
  C414     1.0000 0.86343  0.17813  0.79912  Biso   1.000  C
  C415     1.0000 0.86343  0.79863  0.17862  Biso   1.000  C
  C416     1.0000 0.12563  0.17813  0.17862  Biso   1.000  C
  C417     1.0000 0.80478  0.85728  0.17862  Biso   1.000  C
  C418     1.0000 0.80478  0.11948  0.79912  Biso   1.000  C
  C419     1.0000 0.18428  0.11948  0.17862  Biso   1.000  C
  C420     1.0000 0.18428  0.85728  0.79912  Biso   1.000  C
  C421     1.0000 0.12563  0.79863  0.17862  Biso   1.000  C
  C422     1.0000 0.86343  0.79863  0.79912  Biso   1.000  C
  C423     1.0000 0.86343  0.17813  0.17862  Biso   1.000  C
  C424     1.0000 0.12563  0.17813  0.79912  Biso   1.000  C
  C425     1.0000 0.80478  0.17813  0.11997  Biso   1.000  C
  C426     1.0000 0.80478  0.79863  0.85777  Biso   1.000  C
  C427     1.0000 0.18428  0.17813  0.85777  Biso   1.000  C
  C428     1.0000 0.18428  0.79863  0.11997  Biso   1.000  C
  C429     1.0000 0.18428  0.11948  0.79912  Biso   1.000  C
  C430     1.0000 0.80478  0.85728  0.79912  Biso   1.000  C
  C431     1.0000 0.18428  0.85728  0.17862  Biso   1.000  C
  C432     1.0000 0.80478  0.11948  0.17862  Biso   1.000  C
  H217     1.0000 0.19869  0.19254  0.08968  Biso   1.000  H
  H218     1.0000 0.79037  0.19254  0.88806  Biso   1.000  H
  H219     1.0000 0.19869  0.78422  0.88806  Biso   1.000  H
  H220     1.0000 0.79037  0.78422  0.08968  Biso   1.000  H
  H221     1.0000 0.09534  0.78422  0.78471  Biso   1.000  H
  H222     1.0000 0.89372  0.19254  0.78471  Biso   1.000  H
  H223     1.0000 0.89372  0.78422  0.19303  Biso   1.000  H
  H224     1.0000 0.09534  0.19254  0.19303  Biso   1.000  H
  H225     1.0000 0.79037  0.88757  0.19303  Biso   1.000  H
  H226     1.0000 0.79037  0.08919  0.78471  Biso   1.000  H
  H227     1.0000 0.19869  0.08919  0.19303  Biso   1.000  H
  H228     1.0000 0.19869  0.88757  0.78471  Biso   1.000  H
  H229     1.0000 0.09534  0.78422  0.19303  Biso   1.000  H
  H230     1.0000 0.89372  0.78422  0.78471  Biso   1.000  H
  H231     1.0000 0.89372  0.19254  0.19303  Biso   1.000  H
  H232     1.0000 0.09534  0.19254  0.78471  Biso   1.000  H
  H233     1.0000 0.79037  0.19254  0.08968  Biso   1.000  H
  H234     1.0000 0.79037  0.78422  0.88806  Biso   1.000  H
  H235     1.0000 0.19869  0.19254  0.88806  Biso   1.000  H
  H236     1.0000 0.19869  0.78422  0.08968  Biso   1.000  H
  H237     1.0000 0.19869  0.08919  0.78471  Biso   1.000  H
  H238     1.0000 0.79037  0.88757  0.78471  Biso   1.000  H
  H239     1.0000 0.19869  0.88757  0.19303  Biso   1.000  H
