data_image0
_cell_length_a       35.0765
_cell_length_b       35.0765
_cell_length_c       35.0765
_cell_angle_alpha    90
_cell_angle_beta     90
_cell_angle_gamma    90

_symmetry_space_group_name_H-M    "P 1"
_symmetry_int_tables_number       1

loop_
  _symmetry_equiv_pos_as_xyz
  'x, y, z'

loop_
  _atom_site_label
  _atom_site_occupancy
  _atom_site_fract_x
  _atom_site_fract_y
  _atom_site_fract_z
  _atom_site_thermal_displace_type
  _atom_site_B_iso_or_equiv
  _atom_site_type_symbol
  C1       1.0000 0.29734  0.45348  0.90348  Biso   1.000  C
  C2       1.0000 0.33057  0.46932  0.91997  Biso   1.000  C
  C3       1.0000 0.34767  0.45326  0.95289  Biso   1.000  C
  C4       1.0000 0.32979  0.42124  0.96983  Biso   1.000  C
  C5       1.0000 0.29653  0.40476  0.95413  Biso   1.000  C
  C6       1.0000 0.28052  0.42146  0.92115  Biso   1.000  C
  H1       1.0000 0.34413  0.49328  0.90600  Biso   1.000  H
  H2       1.0000 0.34278  0.40790  0.99447  Biso   1.000  H
  H3       1.0000 0.25575  0.40840  0.90816  Biso   1.000  H
  C7       1.0000 0.45387  0.84574  0.45415  Biso   1.000  C
  C8       1.0000 0.47050  0.82848  0.42181  Biso   1.000  C
  C9       1.0000 0.45483  0.79528  0.40531  Biso   1.000  C
  C10      1.0000 0.42236  0.77875  0.42247  Biso   1.000  C
  C11      1.0000 0.40504  0.79526  0.45484  Biso   1.000  C
  C12      1.0000 0.42146  0.82848  0.47061  Biso   1.000  C
  H4       1.0000 0.49464  0.84211  0.40821  Biso   1.000  H
  H5       1.0000 0.40930  0.75405  0.40935  Biso   1.000  H
  H6       1.0000 0.40776  0.84213  0.49468  Biso   1.000  H
  C13      1.0000 0.95351  0.90251  0.79807  Biso   1.000  C
  C14      1.0000 0.92149  0.92045  0.78130  Biso   1.000  C
  C15      1.0000 0.90502  0.95361  0.79716  Biso   1.000  C
  C16      1.0000 0.92169  0.96943  0.83027  Biso   1.000  C
  C17      1.0000 0.95377  0.95253  0.84807  Biso   1.000  C
  C18      1.0000 0.96967  0.91944  0.83107  Biso   1.000  C
  H7       1.0000 0.90816  0.90761  0.75658  Biso   1.000  H
  H8       1.0000 0.90847  0.99418  0.84316  Biso   1.000  H
  H9       1.0000 0.99376  0.90572  0.84468  Biso   1.000  H
  C19      1.0000 0.45355  0.90497  0.29714  Biso   1.000  C
  C20      1.0000 0.42053  0.92169  0.28126  Biso   1.000  C
  C21      1.0000 0.40275  0.95378  0.29811  Biso   1.000  C
  C22      1.0000 0.41969  0.96972  0.33117  Biso   1.000  C
  C23      1.0000 0.45262  0.95355  0.34819  Biso   1.000  C
  C24      1.0000 0.46938  0.92144  0.33034  Biso   1.000  C
  H10      1.0000 0.40768  0.90850  0.25647  Biso   1.000  H
  H11      1.0000 0.40606  0.99385  0.34482  Biso   1.000  H
  H12      1.0000 0.49403  0.90805  0.34327  Biso   1.000  H
  C25      1.0000 0.79672  0.29576  0.34487  Biso   1.000  C
  C26      1.0000 0.82982  0.27986  0.32831  Biso   1.000  C
  C27      1.0000 0.84748  0.29668  0.29625  Biso   1.000  C
  C28      1.0000 0.83085  0.32971  0.28029  Biso   1.000  C
  C29      1.0000 0.79776  0.34637  0.29610  Biso   1.000  C
  C30      1.0000 0.78084  0.32880  0.32815  Biso   1.000  C
  H13      1.0000 0.84294  0.25523  0.34151  Biso   1.000  H
  H14      1.0000 0.84472  0.34351  0.25640  Biso   1.000  H
  H15      1.0000 0.75617  0.34194  0.34125  Biso   1.000  H
  C31      1.0000 0.79637  0.84504  0.79621  Biso   1.000  C
  C32      1.0000 0.82977  0.82873  0.78070  Biso   1.000  C
  C33      1.0000 0.84747  0.79658  0.79749  Biso   1.000  C
  C34      1.0000 0.82999  0.78007  0.82998  Biso   1.000  C
  C35      1.0000 0.79663  0.79580  0.84656  Biso   1.000  C
  C36      1.0000 0.77995  0.82798  0.82879  Biso   1.000  C
  H16      1.0000 0.84305  0.84238  0.75639  Biso   1.000  H
  H17      1.0000 0.84357  0.75592  0.84362  Biso   1.000  H
  H18      1.0000 0.75501  0.84108  0.84144  Biso   1.000  H
  C37      1.0000 0.95381  0.34611  0.45282  Biso   1.000  C
  C38      1.0000 0.96989  0.32951  0.41983  Biso   1.000  C
  C39      1.0000 0.95419  0.29636  0.40318  Biso   1.000  C
  C40      1.0000 0.92219  0.27935  0.42074  Biso   1.000  C
  C41      1.0000 0.90542  0.29521  0.45375  Biso   1.000  C
  C42      1.0000 0.92187  0.32834  0.46966  Biso   1.000  C
  H19      1.0000 0.99369  0.34347  0.40600  Biso   1.000  H
  H20      1.0000 0.90914  0.25465  0.40760  Biso   1.000  H
  H21      1.0000 0.90861  0.34145  0.49426  Biso   1.000  H
  C43      1.0000 0.45216  0.45236  0.84663  Biso   1.000  C
  C44      1.0000 0.41943  0.46862  0.82978  Biso   1.000  C
  C45      1.0000 0.40237  0.45242  0.79713  Biso   1.000  C
  C46      1.0000 0.41922  0.41965  0.78086  Biso   1.000  C
  C47      1.0000 0.45200  0.40272  0.79698  Biso   1.000  C
  C48      1.0000 0.46832  0.41966  0.82964  Biso   1.000  C
  H22      1.0000 0.40616  0.49308  0.84315  Biso   1.000  H
  H23      1.0000 0.40580  0.40629  0.75647  Biso   1.000  H
  H24      1.0000 0.49281  0.40635  0.84293  Biso   1.000  H
  C49      1.0000 0.79686  0.90590  0.95512  Biso   1.000  C
  C50      1.0000 0.78018  0.92330  0.92289  Biso   1.000  C
  C51      1.0000 0.79672  0.95556  0.90546  Biso   1.000  C
  C52      1.0000 0.83030  0.97106  0.92157  Biso   1.000  C
  C53      1.0000 0.84802  0.95438  0.95384  Biso   1.000  C
  C54      1.0000 0.83041  0.92207  0.97054  Biso   1.000  C
  H25      1.0000 0.75519  0.91045  0.91010  Biso   1.000  H
  H26      1.0000 0.84372  0.99516  0.90768  Biso   1.000  H
  H27      1.0000 0.84388  0.90818  0.99461  Biso   1.000  H
  C55      1.0000 0.29660  0.84773  0.29604  Biso   1.000  C
  C56      1.0000 0.27965  0.83012  0.32821  Biso   1.000  C
  C57      1.0000 0.29486  0.79650  0.34439  Biso   1.000  C
  C58      1.0000 0.32711  0.77973  0.32710  Biso   1.000  C
  C59      1.0000 0.34467  0.79628  0.29489  Biso   1.000  C
  C60      1.0000 0.32877  0.82992  0.27942  Biso   1.000  C
  H28      1.0000 0.25558  0.84367  0.34201  Biso   1.000  H
  H29      1.0000 0.33981  0.75471  0.33996  Biso   1.000  H
  H30      1.0000 0.34276  0.84333  0.25538  Biso   1.000  H
  C61      1.0000 0.79693  0.40436  0.45348  Biso   1.000  C
  C62      1.0000 0.78086  0.42106  0.42055  Biso   1.000  C
  C63      1.0000 0.79753  0.45320  0.40299  Biso   1.000  C
  C64      1.0000 0.83062  0.46917  0.41953  Biso   1.000  C
  C65      1.0000 0.84777  0.45314  0.45238  Biso   1.000  C
  C66      1.0000 0.83008  0.42099  0.46926  Biso   1.000  C
  H31      1.0000 0.75617  0.40790  0.40749  Biso   1.000  H
  H32      1.0000 0.84405  0.49324  0.40561  Biso   1.000  H
  H33      1.0000 0.84314  0.40765  0.49387  Biso   1.000  H
  C67      1.0000 0.95381  0.84816  0.95362  Biso   1.000  C
  C68      1.0000 0.92178  0.83031  0.97054  Biso   1.000  C
  C69      1.0000 0.90541  0.79701  0.95482  Biso   1.000  C
  C70      1.0000 0.92219  0.78099  0.92198  Biso   1.000  C
  C71      1.0000 0.95411  0.79789  0.90433  Biso   1.000  C
  C72      1.0000 0.96995  0.83106  0.92078  Biso   1.000  C
  H34      1.0000 0.90833  0.84335  0.99509  Biso   1.000  H
  H35      1.0000 0.90918  0.75619  0.90899  Biso   1.000  H
  H36      1.0000 0.99387  0.84464  0.90675  Biso   1.000  H
  C73      1.0000 0.29662  0.34664  0.79674  Biso   1.000  C
  C74      1.0000 0.27975  0.32911  0.82885  Biso   1.000  C
  C75      1.0000 0.29563  0.29609  0.84560  Biso   1.000  C
  C76      1.0000 0.32871  0.28013  0.82903  Biso   1.000  C
  C77      1.0000 0.34636  0.29688  0.79694  Biso   1.000  C
  C78      1.0000 0.32972  0.32993  0.78093  Biso   1.000  C
  H37      1.0000 0.25510  0.34228  0.84196  Biso   1.000  H
  H38      1.0000 0.34182  0.25552  0.84225  Biso   1.000  H
  H39      1.0000 0.34357  0.34369  0.75702  Biso   1.000  H
  C79      1.0000 0.15423  0.54599  0.54481  Biso   1.000  C
  C80      1.0000 0.17144  0.52942  0.57723  Biso   1.000  C
  C81      1.0000 0.20377  0.54593  0.59460  Biso   1.000  C
  C82      1.0000 0.21946  0.57927  0.57825  Biso   1.000  C
  C83      1.0000 0.20299  0.59657  0.54581  Biso   1.000  C
  C84      1.0000 0.17064  0.57930  0.52920  Biso   1.000  C
  H40      1.0000 0.15841  0.50462  0.59021  Biso   1.000  H
  H41      1.0000 0.24354  0.59290  0.59195  Biso   1.000  H
  H42      1.0000 0.15703  0.59291  0.50507  Biso   1.000  H
  C85      1.0000 0.59678  0.70319  0.04641  Biso   1.000  C
  C86      1.0000 0.57915  0.67106  0.02969  Biso   1.000  C
  C87      1.0000 0.54606  0.65449  0.04567  Biso   1.000  C
  C88      1.0000 0.53021  0.67127  0.07869  Biso   1.000  C
  C89      1.0000 0.54711  0.70338  0.09619  Biso   1.000  C
  C90      1.0000 0.58015  0.71921  0.07945  Biso   1.000  C
  H43      1.0000 0.59228  0.65782  0.00509  Biso   1.000  H
  H44      1.0000 0.50556  0.65817  0.09186  Biso   1.000  H
  H45      1.0000 0.59397  0.74315  0.09319  Biso   1.000  H
  C91      1.0000 0.70375  0.20329  0.65357  Biso   1.000  C
  C92      1.0000 0.71971  0.17030  0.67025  Biso   1.000  C
  C93      1.0000 0.70380  0.15364  0.70325  Biso   1.000  C
  C94      1.0000 0.67175  0.17119  0.72012  Biso   1.000  C
  C95      1.0000 0.65505  0.20419  0.70420  Biso   1.000  C
  C96      1.0000 0.67167  0.22012  0.67113  Biso   1.000  C
  H46      1.0000 0.74362  0.15648  0.65645  Biso   1.000  H
  H47      1.0000 0.65859  0.15802  0.74475  Biso   1.000  H
  H48      1.0000 0.65846  0.24470  0.65793  Biso   1.000  H
  C97      1.0000 0.09515  0.04412  0.20541  Biso   1.000  C
  C98      1.0000 0.07799  0.07673  0.22162  Biso   1.000  C
  C99      1.0000 0.04532  0.09365  0.20525  Biso   1.000  C
  C100     1.0000 0.02911  0.07657  0.17260  Biso   1.000  C
  C101     1.0000 0.04547  0.04394  0.15560  Biso   1.000  C
  C102     1.0000 0.07824  0.02780  0.17265  Biso   1.000  C
  H49      1.0000 0.09140  0.09027  0.24590  Biso   1.000  H
  H50      1.0000 0.00481  0.09000  0.15909  Biso   1.000  H
  H51      1.0000 0.09183  0.00359  0.15916  Biso   1.000  H
  C103     1.0000 0.04684  0.15493  0.04598  Biso   1.000  C
  C104     1.0000 0.08019  0.17126  0.03034  Biso   1.000  C
  C105     1.0000 0.09786  0.20354  0.04697  Biso   1.000  C
  C106     1.0000 0.08043  0.22014  0.07944  Biso   1.000  C
  C107     1.0000 0.04721  0.20438  0.09622  Biso   1.000  C
  C108     1.0000 0.03053  0.17207  0.07860  Biso   1.000  C
  H52      1.0000 0.09344  0.15757  0.00604  Biso   1.000  H
  H53      1.0000 0.09397  0.24440  0.09294  Biso   1.000  H
  H54      1.0000 0.00566  0.15896  0.09137  Biso   1.000  H
  C109     1.0000 0.15448  0.70539  0.70429  Biso   1.000  C
  C110     1.0000 0.17086  0.72108  0.67101  Biso   1.000  C
  C111     1.0000 0.20323  0.70455  0.65369  Biso   1.000  C
  C112     1.0000 0.21979  0.67212  0.67094  Biso   1.000  C
  C113     1.0000 0.20417  0.65568  0.70424  Biso   1.000  C
  C114     1.0000 0.17178  0.67296  0.72079  Biso   1.000  C
  H55      1.0000 0.15720  0.74520  0.65741  Biso   1.000  H
  H56      1.0000 0.24389  0.65848  0.65729  Biso   1.000  H
  H57      1.0000 0.15878  0.65993  0.74558  Biso   1.000  H
  C115     1.0000 0.20489  0.15523  0.20527  Biso   1.000  C
  C116     1.0000 0.17222  0.17223  0.22165  Biso   1.000  C
  C117     1.0000 0.15462  0.20458  0.20505  Biso   1.000  C
  C118     1.0000 0.17147  0.22054  0.17201  Biso   1.000  C
  C119     1.0000 0.20396  0.20411  0.15483  Biso   1.000  C
  C120     1.0000 0.22058  0.17178  0.17210  Biso   1.000  C
  H58      1.0000 0.15935  0.15896  0.24638  Biso   1.000  H
  H59      1.0000 0.15808  0.24473  0.15827  Biso   1.000  H
  H60      1.0000 0.24481  0.15828  0.15855  Biso   1.000  H
  C121     1.0000 0.65468  0.04571  0.54717  Biso   1.000  C
  C122     1.0000 0.67148  0.07868  0.53130  Biso   1.000  C
  C123     1.0000 0.70348  0.09627  0.54825  Biso   1.000  C
  C124     1.0000 0.71921  0.07967  0.58145  Biso   1.000  C
  C125     1.0000 0.70308  0.04672  0.59844  Biso   1.000  C
  C126     1.0000 0.67103  0.02990  0.58049  Biso   1.000  C
  H61      1.0000 0.65852  0.09172  0.50650  Biso   1.000  H
  H62      1.0000 0.74319  0.09358  0.59505  Biso   1.000  H
  H63      1.0000 0.65762  0.00527  0.59341  Biso   1.000  H
  C127     1.0000 0.54495  0.54530  0.15488  Biso   1.000  C
  C128     1.0000 0.57740  0.52888  0.17218  Biso   1.000  C
  C129     1.0000 0.59475  0.54558  0.20446  Biso   1.000  C
  C130     1.0000 0.57835  0.57895  0.21998  Biso   1.000  C
  C131     1.0000 0.54589  0.59614  0.20340  Biso   1.000  C
  C132     1.0000 0.52931  0.57868  0.17114  Biso   1.000  C
  H64      1.0000 0.59040  0.50404  0.15925  Biso   1.000  H
  H65      1.0000 0.59205  0.59270  0.24399  Biso   1.000  H
  H66      1.0000 0.50516  0.59222  0.15748  Biso   1.000  H
  C133     1.0000 0.65336  0.70349  0.20281  Biso   1.000  C
  C134     1.0000 0.66997  0.71947  0.16977  Biso   1.000  C
  C135     1.0000 0.70296  0.70357  0.15303  Biso   1.000  C
  C136     1.0000 0.71983  0.67147  0.17054  Biso   1.000  C
  C137     1.0000 0.70397  0.65476  0.20357  Biso   1.000  C
  C138     1.0000 0.67095  0.67139  0.21956  Biso   1.000  C
  H67      1.0000 0.65616  0.74340  0.15600  Biso   1.000  H
  H68      1.0000 0.74445  0.65831  0.15734  Biso   1.000  H
  H69      1.0000 0.65782  0.65819  0.24419  Biso   1.000  H
  C139     1.0000 0.15573  0.04638  0.04544  Biso   1.000  C
  C140     1.0000 0.17304  0.02984  0.07785  Biso   1.000  C
  C141     1.0000 0.20535  0.04644  0.09530  Biso   1.000  C
  C142     1.0000 0.22080  0.08001  0.07911  Biso   1.000  C
  C143     1.0000 0.20416  0.09762  0.04676  Biso   1.000  C
  C144     1.0000 0.17193  0.07991  0.03002  Biso   1.000  C
  H70      1.0000 0.16018  0.00489  0.09069  Biso   1.000  H
  H71      1.0000 0.24489  0.09347  0.09297  Biso   1.000  H
  H72      1.0000 0.15814  0.09328  0.00583  Biso   1.000  H
  C145     1.0000 0.59632  0.20369  0.54589  Biso   1.000  C
  C146     1.0000 0.57894  0.17134  0.52938  Biso   1.000  C
  C147     1.0000 0.54564  0.15499  0.54512  Biso   1.000  C
  C148     1.0000 0.52922  0.17228  0.57754  Biso   1.000  C
  C149     1.0000 0.54585  0.20461  0.59482  Biso   1.000  C
  C150     1.0000 0.57914  0.22023  0.57836  Biso   1.000  C
  H73      1.0000 0.59249  0.15767  0.50524  Biso   1.000  H
  H74      1.0000 0.50444  0.15929  0.59059  Biso   1.000  H
  H75      1.0000 0.59284  0.24429  0.59202  Biso   1.000  H
  C151     1.0000 0.09350  0.54525  0.70518  Biso   1.000  C
  C152     1.0000 0.07652  0.52900  0.67244  Biso   1.000  C
  C153     1.0000 0.04385  0.54526  0.65534  Biso   1.000  C
  C154     1.0000 0.02757  0.57799  0.67233  Biso   1.000  C
  C155     1.0000 0.04376  0.59499  0.70508  Biso   1.000  C
  C156     1.0000 0.07644  0.57795  0.72139  Biso   1.000  C
  H76      1.0000 0.09000  0.50470  0.65900  Biso   1.000  H
  H77      1.0000 0.00333  0.59149  0.65880  Biso   1.000  H
  H78      1.0000 0.08989  0.59140  0.74571  Biso   1.000  H
  C157     1.0000 0.65498  0.54563  0.04456  Biso   1.000  C
  C158     1.0000 0.67232  0.52904  0.07691  Biso   1.000  C
  C159     1.0000 0.70478  0.54550  0.09417  Biso   1.000  C
  C160     1.0000 0.72044  0.57882  0.07777  Biso   1.000  C
  C161     1.0000 0.70388  0.59619  0.04542  Biso   1.000  C
  C162     1.0000 0.67139  0.57896  0.02893  Biso   1.000  C
  H79      1.0000 0.65931  0.50425  0.08992  Biso   1.000  H
  H80      1.0000 0.74460  0.59238  0.09139  Biso   1.000  H
  H81      1.0000 0.65770  0.59264  0.00487  Biso   1.000  H
  C163     1.0000 0.04471  0.70535  0.59485  Biso   1.000  C
  C164     1.0000 0.02809  0.67293  0.57760  Biso   1.000  C
  C165     1.0000 0.04451  0.65560  0.54513  Biso   1.000  C
  C166     1.0000 0.07787  0.67194  0.52946  Biso   1.000  C
  C167     1.0000 0.09527  0.70430  0.54597  Biso   1.000  C
  C168     1.0000 0.07804  0.72090  0.57839  Biso   1.000  C
  H82      1.0000 0.00330  0.65997  0.59065  Biso   1.000  H
  H83      1.0000 0.09142  0.65828  0.50532  Biso   1.000  H
  H84      1.0000 0.09173  0.74500  0.59200  Biso   1.000  H
  C169     1.0000 0.54670  0.04470  0.65539  Biso   1.000  C
  C170     1.0000 0.58022  0.02920  0.67162  Biso   1.000  C
  C171     1.0000 0.59786  0.04587  0.70398  Biso   1.000  C
  C172     1.0000 0.58022  0.07821  0.72060  Biso   1.000  C
  C173     1.0000 0.54669  0.09441  0.70507  Biso   1.000  C
  C174     1.0000 0.53013  0.07701  0.67276  Biso   1.000  C
  H85      1.0000 0.59363  0.00507  0.65779  Biso   1.000  H
  H86      1.0000 0.59361  0.09206  0.74473  Biso   1.000  H
  H87      1.0000 0.50519  0.08986  0.65990  Biso   1.000  H
  C175     1.0000 0.45284  0.34793  0.95305  Biso   1.000  C
  C176     1.0000 0.42083  0.33000  0.96994  Biso   1.000  C
  C177     1.0000 0.40446  0.29669  0.95421  Biso   1.000  C
  C178     1.0000 0.42123  0.28073  0.92128  Biso   1.000  C
  C179     1.0000 0.45323  0.29763  0.90364  Biso   1.000  C
  C180     1.0000 0.46898  0.33087  0.92015  Biso   1.000  C
  H88      1.0000 0.40743  0.34297  0.99455  Biso   1.000  H
  H89      1.0000 0.40824  0.25592  0.90829  Biso   1.000  H
  H90      1.0000 0.49292  0.34447  0.90618  Biso   1.000  H
  C181     1.0000 0.95246  0.45192  0.34824  Biso   1.000  C
  C182     1.0000 0.91982  0.46815  0.33083  Biso   1.000  C
  C183     1.0000 0.90316  0.45203  0.29788  Biso   1.000  C
  C184     1.0000 0.92028  0.41938  0.28169  Biso   1.000  C
  C185     1.0000 0.95297  0.40243  0.29800  Biso   1.000  C
  C186     1.0000 0.96890  0.41926  0.33101  Biso   1.000  C
  H91      1.0000 0.90624  0.49263  0.34386  Biso   1.000  H
  H92      1.0000 0.90718  0.40617  0.25705  Biso   1.000  H
  H93      1.0000 0.99337  0.40583  0.34422  Biso   1.000  H
  C187     1.0000 0.29823  0.95382  0.40227  Biso   1.000  C
  C188     1.0000 0.28138  0.92179  0.42011  Biso   1.000  C
  C189     1.0000 0.29720  0.90522  0.45323  Biso   1.000  C
  C190     1.0000 0.33036  0.92174  0.46908  Biso   1.000  C
  C191     1.0000 0.34823  0.95380  0.45225  Biso   1.000  C
  C192     1.0000 0.33126  0.96986  0.41924  Biso   1.000  C
  H94      1.0000 0.25662  0.90856  0.40723  Biso   1.000  H
  H95      1.0000 0.34321  0.90843  0.49380  Biso   1.000  H
  H96      1.0000 0.34493  0.99395  0.40559  Biso   1.000  H
  O1       1.0000 0.14784  0.54964  0.74665  Biso   1.000  O
  O2       1.0000 0.16189  0.54505  0.81444  Biso   1.000  O
  O3       1.0000 0.24605  0.60177  0.70037  Biso   1.000  O
  O4       1.0000 0.31033  0.59148  0.70379  Biso   1.000  O
  O5       1.0000 0.19970  0.50383  0.64847  Biso   1.000  O
  O6       1.0000 0.20474  0.43578  0.66233  Biso   1.000  O
  O7       1.0000 0.34928  0.49529  0.80042  Biso   1.000  O
  O8       1.0000 0.33922  0.56259  0.79205  Biso   1.000  O
  O9       1.0000 0.25449  0.45012  0.85008  Biso   1.000  O
  O10      1.0000 0.18393  0.45481  0.83676  Biso   1.000  O
  O11      1.0000 0.29972  0.40018  0.75422  Biso   1.000  O
  O12      1.0000 0.29468  0.41374  0.68408  Biso   1.000  O
  O13      1.0000 0.34922  0.44976  0.75438  Biso   1.000  O
  O14      1.0000 0.33586  0.45515  0.68410  Biso   1.000  O
  O15      1.0000 0.25417  0.40019  0.80021  Biso   1.000  O
  O16      1.0000 0.18391  0.41356  0.79574  Biso   1.000  O
  O17      1.0000 0.30033  0.49584  0.84991  Biso   1.000  O
  O18      1.0000 0.29426  0.56539  0.83723  Biso   1.000  O
  O19      1.0000 0.14763  0.50368  0.70087  Biso   1.000  O
  O20      1.0000 0.16143  0.43585  0.70572  Biso   1.000  O
  O21      1.0000 0.24551  0.54976  0.64848  Biso   1.000  O
  O22      1.0000 0.31400  0.54192  0.66228  Biso   1.000  O
  O23      1.0000 0.20014  0.60182  0.74623  Biso   1.000  O
  O24      1.0000 0.20536  0.58812  0.81431  Biso   1.000  O
  Zr1      1.0000 0.20329  0.54659  0.77069  Biso   1.000  Zr
  O25      1.0000 0.23710  0.51264  0.80748  Biso   1.000  O
  Zr2      1.0000 0.27013  0.54648  0.70351  Biso   1.000  Zr
  O26      1.0000 0.30703  0.51274  0.73753  Biso   1.000  O
  Zr3      1.0000 0.20294  0.47948  0.70378  Biso   1.000  Zr
  O27      1.0000 0.23690  0.44265  0.73758  Biso   1.000  O
  Zr4      1.0000 0.29524  0.52150  0.79562  Biso   1.000  Zr
  O28      1.0000 0.26154  0.55900  0.76178  Biso   1.000  O
  Zr5      1.0000 0.22824  0.45452  0.79576  Biso   1.000  Zr
  O29      1.0000 0.19077  0.48838  0.76202  Biso   1.000  O
  Zr6      1.0000 0.29499  0.45459  0.72852  Biso   1.000  Zr
  O30      1.0000 0.26103  0.48832  0.69119  Biso   1.000  O
  O31      1.0000 0.21270  0.53688  0.71327  Biso   1.000  O
  O32      1.0000 0.28595  0.46373  0.78634  Biso   1.000  O
  C193     1.0000 0.13165  0.53140  0.71904  Biso   1.000  C
  C194     1.0000 0.21828  0.61780  0.71845  Biso   1.000  C
  C195     1.0000 0.21780  0.53164  0.63247  Biso   1.000  C
  C196     1.0000 0.36486  0.46711  0.78271  Biso   1.000  C
  C197     1.0000 0.28277  0.46772  0.86570  Biso   1.000  C
  C198     1.0000 0.28226  0.38447  0.78247  Biso   1.000  C
  H97      1.0000 0.23097  0.51863  0.83429  Biso   1.000  H
  H98      1.0000 0.23083  0.41582  0.73153  Biso   1.000  H
  H99      1.0000 0.19634  0.55313  0.69712  Biso   1.000  H
  H100     1.0000 0.33396  0.51880  0.73191  Biso   1.000  H
  H101     1.0000 0.32789  0.58555  0.78015  Biso   1.000  H
  H102     1.0000 0.33385  0.58181  0.71598  Biso   1.000  H
  H103     1.0000 0.18786  0.39654  0.77361  Biso   1.000  H
  H104     1.0000 0.14917  0.43764  0.73108  Biso   1.000  H
  H105     1.0000 0.27212  0.56112  0.85414  Biso   1.000  H
  H106     1.0000 0.23052  0.60072  0.81215  Biso   1.000  H
  H107     1.0000 0.27257  0.39673  0.68811  Biso   1.000  H
  H108     1.0000 0.22984  0.43788  0.64960  Biso   1.000  H
  H109     1.0000 0.14966  0.51965  0.81294  Biso   1.000  H
  H110     1.0000 0.18830  0.47660  0.85411  Biso   1.000  H
  H111     1.0000 0.30967  0.51778  0.64832  Biso   1.000  H
  H112     1.0000 0.35318  0.47695  0.68852  Biso   1.000  H
  O33      1.0000 0.24718  0.10158  0.20147  Biso   1.000  O
  O34      1.0000 0.31528  0.08798  0.20641  Biso   1.000  O
  O35      1.0000 0.20171  0.00384  0.14893  Biso   1.000  O
  O36      1.0000 0.20619  0.93918  0.15893  Biso   1.000  O
  O37      1.0000 0.14922  0.04869  0.24717  Biso   1.000  O
  O38      1.0000 0.16321  0.04385  0.31516  Biso   1.000  O
  O39      1.0000 0.30169  0.90004  0.25512  Biso   1.000  O
  O40      1.0000 0.29459  0.91079  0.18817  Biso   1.000  O
  O41      1.0000 0.35111  0.99576  0.30146  Biso   1.000  O
  O42      1.0000 0.33723  0.06633  0.29594  Biso   1.000  O
  O43      1.0000 0.25628  0.94975  0.35059  Biso   1.000  O
  O44      1.0000 0.18524  0.95486  0.33670  Biso   1.000  O
  O45      1.0000 0.25557  0.89982  0.30046  Biso   1.000  O
  O46      1.0000 0.18629  0.91273  0.29656  Biso   1.000  O
  O47      1.0000 0.30164  0.99581  0.35078  Biso   1.000  O
  O48      1.0000 0.29615  0.06588  0.33749  Biso   1.000  O
  O49      1.0000 0.35136  0.94981  0.25596  Biso   1.000  O
  O50      1.0000 0.33923  0.95593  0.18601  Biso   1.000  O
  O51      1.0000 0.20111  0.10130  0.24715  Biso   1.000  O
  O52      1.0000 0.20610  0.08765  0.31498  Biso   1.000  O
  O53      1.0000 0.14967  0.00316  0.20098  Biso   1.000  O
  O54      1.0000 0.16408  0.93497  0.20809  Biso   1.000  O
  O55      1.0000 0.24739  0.04991  0.14922  Biso   1.000  O
  O56      1.0000 0.31535  0.04468  0.16294  Biso   1.000  O
  Zr7      1.0000 0.27172  0.04639  0.20447  Biso   1.000  Zr
  O57      1.0000 0.30868  0.01276  0.23845  Biso   1.000  O
  Zr8      1.0000 0.20503  0.97916  0.20411  Biso   1.000  Zr
  O58      1.0000 0.23917  0.94249  0.23805  Biso   1.000  O
  Zr9      1.0000 0.20459  0.04605  0.27142  Biso   1.000  Zr
  O59      1.0000 0.23861  0.01239  0.30831  Biso   1.000  O
  Zr10     1.0000 0.29727  0.95453  0.22957  Biso   1.000  Zr
  O60      1.0000 0.26332  0.98808  0.19194  Biso   1.000  O
  Zr11     1.0000 0.29672  0.02157  0.29650  Biso   1.000  Zr
  O61      1.0000 0.26273  0.05877  0.26265  Biso   1.000  O
  Zr12     1.0000 0.23006  0.95427  0.29626  Biso   1.000  Zr
  O62      1.0000 0.19255  0.98789  0.26233  Biso   1.000  O
  O63      1.0000 0.21432  0.03656  0.21401  Biso   1.000  O
  O64      1.0000 0.28782  0.96371  0.28732  Biso   1.000  O
  C199     1.0000 0.21924  0.11743  0.21948  Biso   1.000  C
  C200     1.0000 0.21965  0.03186  0.13309  Biso   1.000  C
  C201     1.0000 0.13334  0.03054  0.21934  Biso   1.000  C
  C202     1.0000 0.28376  0.88401  0.28297  Biso   1.000  C
  C203     1.0000 0.36700  0.96741  0.28422  Biso   1.000  C
  C204     1.0000 0.28442  0.96739  0.36647  Biso   1.000  C
  H113     1.0000 0.33547  0.01908  0.23256  Biso   1.000  H
  H114     1.0000 0.23247  0.01835  0.33514  Biso   1.000  H
  H115     1.0000 0.19797  0.05278  0.19781  Biso   1.000  H
  H116     1.0000 0.23368  0.91555  0.23189  Biso   1.000  H
  H117     1.0000 0.28246  0.92204  0.16529  Biso   1.000  H
  H118     1.0000 0.21831  0.91566  0.16870  Biso   1.000  H
  H119     1.0000 0.27406  0.06169  0.35449  Biso   1.000  H
  H120     1.0000 0.23134  0.10015  0.31320  Biso   1.000  H
  H121     1.0000 0.35629  0.97785  0.19076  Biso   1.000  H
  H122     1.0000 0.31361  0.01937  0.15058  Biso   1.000  H
  H123     1.0000 0.19037  0.97562  0.35507  Biso   1.000  H
  H124     1.0000 0.15081  0.01858  0.31315  Biso   1.000  H
  H125     1.0000 0.31328  0.10045  0.23165  Biso   1.000  H
  H126     1.0000 0.35521  0.06155  0.27476  Biso   1.000  H
  H127     1.0000 0.15027  0.93878  0.23240  Biso   1.000  H
  H128     1.0000 0.18906  0.89718  0.27320  Biso   1.000  H
  O65      1.0000 0.45038  0.85174  0.25413  Biso   1.000  O
  O66      1.0000 0.45603  0.83848  0.18581  Biso   1.000  O
  O67      1.0000 0.39827  0.75390  0.29898  Biso   1.000  O
  O68      1.0000 0.40831  0.68948  0.29550  Biso   1.000  O
  O69      1.0000 0.49678  0.79924  0.35154  Biso   1.000  O
  O70      1.0000 0.56465  0.79436  0.33745  Biso   1.000  O
  O71      1.0000 0.50417  0.65024  0.19919  Biso   1.000  O
  O72      1.0000 0.43714  0.66105  0.20677  Biso   1.000  O
  O73      1.0000 0.55027  0.74588  0.14976  Biso   1.000  O
  O74      1.0000 0.54533  0.81636  0.16362  Biso   1.000  O
  O75      1.0000 0.59970  0.69979  0.24506  Biso   1.000  O
  O76      1.0000 0.58609  0.70452  0.31553  Biso   1.000  O
  O77      1.0000 0.54960  0.64998  0.24532  Biso   1.000  O
  O78      1.0000 0.54510  0.66324  0.31511  Biso   1.000  O
  O79      1.0000 0.60001  0.74597  0.19970  Biso   1.000  O
  O80      1.0000 0.58687  0.81579  0.20438  Biso   1.000  O
  O81      1.0000 0.50471  0.69988  0.14966  Biso   1.000  O
  O82      1.0000 0.43494  0.70610  0.16197  Biso   1.000  O
  O83      1.0000 0.49618  0.85152  0.30008  Biso   1.000  O
  O84      1.0000 0.56431  0.83804  0.29421  Biso   1.000  O
  O85      1.0000 0.45046  0.75383  0.35121  Biso   1.000  O
  O86      1.0000 0.45762  0.68538  0.33702  Biso   1.000  O
  O87      1.0000 0.39855  0.79982  0.25315  Biso   1.000  O
  O88      1.0000 0.41252  0.79525  0.18534  Biso   1.000  O
  Zr13     1.0000 0.45384  0.79669  0.22917  Biso   1.000  Zr
  O89      1.0000 0.48764  0.76290  0.19227  Biso   1.000  O
  Zr14     1.0000 0.45348  0.72947  0.29599  Biso   1.000  Zr
  O90      1.0000 0.48718  0.69265  0.26186  Biso   1.000  O
  Zr15     1.0000 0.52078  0.79642  0.29620  Biso   1.000  Zr
  O91      1.0000 0.55751  0.76252  0.26230  Biso   1.000  O
  Zr16     1.0000 0.47862  0.70470  0.20379  Biso   1.000  Zr
  O92      1.0000 0.44119  0.73841  0.23772  Biso   1.000  O
  Zr17     1.0000 0.54570  0.77165  0.20419  Biso   1.000  Zr
  O93      1.0000 0.51200  0.80908  0.23808  Biso   1.000  O
  Zr18     1.0000 0.54536  0.70440  0.27097  Biso   1.000  Zr
  O94      1.0000 0.51168  0.73827  0.30844  Biso   1.000  O
  O95      1.0000 0.46337  0.78683  0.28655  Biso   1.000  O
  O96      1.0000 0.53641  0.71381  0.21318  Biso   1.000  O
  C205     1.0000 0.46826  0.86753  0.28221  Biso   1.000  C
  C206     1.0000 0.38243  0.78177  0.28085  Biso   1.000  C
  C207     1.0000 0.46886  0.78127  0.36740  Biso   1.000  C
  C208     1.0000 0.53201  0.63430  0.21714  Biso   1.000  C
  C209     1.0000 0.53279  0.71764  0.13400  Biso   1.000  C
  C210     1.0000 0.61556  0.71764  0.21712  Biso   1.000  C
  H129     1.0000 0.48171  0.76920  0.16549  Biso   1.000  H
  H130     1.0000 0.58434  0.76846  0.26843  Biso   1.000  H
  H131     1.0000 0.44706  0.80295  0.30288  Biso   1.000  H
  H132     1.0000 0.48097  0.66572  0.26739  Biso   1.000  H
  H133     1.0000 0.41430  0.67241  0.21887  Biso   1.000  H
  H134     1.0000 0.41783  0.66607  0.28298  Biso   1.000  H
  H135     1.0000 0.60313  0.81236  0.22716  Biso   1.000  H
  H136     1.0000 0.56185  0.85101  0.26927  Biso   1.000  H
  H137     1.0000 0.43965  0.72802  0.14489  Biso   1.000  H
  H138     1.0000 0.40015  0.76993  0.18689  Biso   1.000  H
  H139     1.0000 0.60368  0.72611  0.31116  Biso   1.000  H
  H140     1.0000 0.56270  0.76911  0.34991  Biso   1.000  H
  H141     1.0000 0.48109  0.85122  0.18824  Biso   1.000  H
  H142     1.0000 0.52367  0.81204  0.14611  Biso   1.000  H
  H143     1.0000 0.48181  0.68942  0.35099  Biso   1.000  H
  H144     1.0000 0.52243  0.64688  0.31151  Biso   1.000  H
  O97      1.0000 0.10068  0.70124  0.74626  Biso   1.000  O
  O98      1.0000 0.08736  0.70585  0.81414  Biso   1.000  O
  O99      1.0000 0.00216  0.64926  0.70093  Biso   1.000  O
  O100     1.0000 0.93787  0.65991  0.70431  Biso   1.000  O
  O101     1.0000 0.04855  0.74747  0.64864  Biso   1.000  O
  O102     1.0000 0.04340  0.81522  0.66234  Biso   1.000  O
  O103     1.0000 0.89963  0.75536  0.80176  Biso   1.000  O
  O104     1.0000 0.90987  0.68867  0.79396  Biso   1.000  O
  O105     1.0000 0.99624  0.80090  0.85067  Biso   1.000  O
  O106     1.0000 0.06594  0.79642  0.83650  Biso   1.000  O
  O107     1.0000 0.94931  0.85100  0.75591  Biso   1.000  O
  O108     1.0000 0.95344  0.83761  0.68533  Biso   1.000  O
  O109     1.0000 0.89924  0.80086  0.75581  Biso   1.000  O
  O110     1.0000 0.91214  0.79675  0.68578  Biso   1.000  O
  O111     1.0000 0.99527  0.85077  0.80138  Biso   1.000  O
  O112     1.0000 0.06576  0.83726  0.79484  Biso   1.000  O
  O113     1.0000 0.94982  0.75576  0.85077  Biso   1.000  O
  O114     1.0000 0.95565  0.68562  0.83793  Biso   1.000  O
  O115     1.0000 0.10064  0.74734  0.70060  Biso   1.000  O
  O116     1.0000 0.08678  0.81546  0.70579  Biso   1.000  O
  O117     1.0000 0.00282  0.70147  0.64883  Biso   1.000  O
  O118     1.0000 0.93420  0.70946  0.66306  Biso   1.000  O
  O119     1.0000 0.04832  0.64917  0.74652  Biso   1.000  O
  O120     1.0000 0.04372  0.66302  0.81451  Biso   1.000  O
  Zr19     1.0000 0.04553  0.70445  0.77079  Biso   1.000  Zr
  O121     1.0000 0.01222  0.73847  0.80785  Biso   1.000  O
  Zr20     1.0000 0.97827  0.70472  0.70405  Biso   1.000  Zr
  O122     1.0000 0.94172  0.73846  0.73855  Biso   1.000  O
  Zr21     1.0000 0.04542  0.77168  0.70394  Biso   1.000  Zr
  O123     1.0000 0.01177  0.80856  0.73800  Biso   1.000  O
  Zr22     1.0000 0.95396  0.72971  0.79655  Biso   1.000  Zr
  O124     1.0000 0.98721  0.69217  0.76228  Biso   1.000  O
  Zr23     1.0000 0.02119  0.79656  0.79599  Biso   1.000  Zr
  O125     1.0000 0.05822  0.76259  0.76199  Biso   1.000  O
  Zr24     1.0000 0.95354  0.79667  0.72969  Biso   1.000  Zr
  O126     1.0000 0.98718  0.76297  0.69191  Biso   1.000  O
  O127     1.0000 0.03572  0.71424  0.71344  Biso   1.000  O
  O128     1.0000 0.96324  0.78749  0.78734  Biso   1.000  O
  C211     1.0000 0.11665  0.71948  0.71856  Biso   1.000  C
  C212     1.0000 0.02994  0.63314  0.71896  Biso   1.000  C
  C213     1.0000 0.03051  0.71961  0.63272  Biso   1.000  C
  C214     1.0000 0.88357  0.78336  0.78413  Biso   1.000  C
  C215     1.0000 0.96798  0.78357  0.86647  Biso   1.000  C
  C216     1.0000 0.96695  0.86667  0.78417  Biso   1.000  C
  H145     1.0000 0.01863  0.73245  0.83459  Biso   1.000  H
  H146     1.0000 0.01777  0.83539  0.73193  Biso   1.000  H
  H147     1.0000 0.05190  0.69789  0.69720  Biso   1.000  H
  H148     1.0000 0.91474  0.73239  0.73316  Biso   1.000  H
  H149     1.0000 0.92075  0.66594  0.78123  Biso   1.000  H
  H150     1.0000 0.91464  0.66949  0.71709  Biso   1.000  H
  H151     1.0000 0.06059  0.85527  0.77377  Biso   1.000  H
  H152     1.0000 0.09969  0.81322  0.73079  Biso   1.000  H
  H153     1.0000 0.97716  0.69064  0.85544  Biso   1.000  H
  H154     1.0000 0.01851  0.65048  0.81261  Biso   1.000  H
  H155     1.0000 0.97534  0.85489  0.68943  Biso   1.000  H
  H156     1.0000 0.01794  0.81354  0.65028  Biso   1.000  H
  H157     1.0000 0.09995  0.73104  0.81227  Biso   1.000  H
  H158     1.0000 0.06250  0.77391  0.85312  Biso   1.000  H
  H159     1.0000 0.93859  0.73356  0.64904  Biso   1.000  H
  H160     1.0000 0.89583  0.77402  0.68928  Biso   1.000  H
  O129     1.0000 0.00450  0.10116  0.04961  Biso   1.000  O
  O130     1.0000 0.93665  0.08791  0.04446  Biso   1.000  O
  O131     1.0000 0.04990  0.00261  0.10126  Biso   1.000  O
  O132     1.0000 0.04728  0.93861  0.09058  Biso   1.000  O
  O133     1.0000 0.10201  0.04969  0.00309  Biso   1.000  O
  O134     1.0000 0.08825  0.04442  0.93523  Biso   1.000  O
  O135     1.0000 0.94963  0.89993  0.99519  Biso   1.000  O
  O136     1.0000 0.95740  0.91028  0.06198  Biso   1.000  O
  O137     1.0000 0.90011  0.99576  0.94954  Biso   1.000  O
  O138     1.0000 0.91352  0.06513  0.95305  Biso   1.000  O
  O139     1.0000 0.99578  0.94899  0.89968  Biso   1.000  O
  O140     1.0000 0.06560  0.95362  0.91267  Biso   1.000  O
  O141     1.0000 0.99554  0.89978  0.94963  Biso   1.000  O
  O142     1.0000 0.06626  0.91340  0.95501  Biso   1.000  O
  O143     1.0000 0.95011  0.99475  0.89953  Biso   1.000  O
  O144     1.0000 0.95599  0.06584  0.91322  Biso   1.000  O
  O145     1.0000 0.90019  0.94970  0.99494  Biso   1.000  O
  O146     1.0000 0.91313  0.95577  0.06491  Biso   1.000  O
  O147     1.0000 0.05005  0.10138  0.00342  Biso   1.000  O
  O148     1.0000 0.04442  0.08765  0.93514  Biso   1.000  O
  O149     1.0000 0.10204  0.00401  0.04913  Biso   1.000  O
  O150     1.0000 0.08806  0.93501  0.04077  Biso   1.000  O
  O151     1.0000 0.00408  0.04854  0.10135  Biso   1.000  O
  O152     1.0000 0.93593  0.04398  0.08714  Biso   1.000  O
  Zr25     1.0000 0.97989  0.04597  0.04598  Biso   1.000  Zr
  O153     1.0000 0.94300  0.01242  0.01191  Biso   1.000  O
  Zr26     1.0000 0.04699  0.97899  0.04576  Biso   1.000  Zr
  O154     1.0000 0.01261  0.94221  0.01218  Biso   1.000  O
  Zr27     1.0000 0.04670  0.04621  0.97883  Biso   1.000  Zr
  O155     1.0000 0.01292  0.01217  0.94198  Biso   1.000  O
  Zr28     1.0000 0.95453  0.95424  0.02084  Biso   1.000  Zr
  O156     1.0000 0.98869  0.98769  0.05829  Biso   1.000  O
  Zr29     1.0000 0.95480  0.02111  0.95375  Biso   1.000  Zr
  O157     1.0000 0.98851  0.05852  0.98777  Biso   1.000  O
  Zr30     1.0000 0.02163  0.95403  0.95402  Biso   1.000  Zr
  O158     1.0000 0.05917  0.98805  0.98756  Biso   1.000  O
  O159     1.0000 0.03726  0.03639  0.03625  Biso   1.000  O
  O160     1.0000 0.96384  0.96333  0.96304  Biso   1.000  O
  C217     1.0000 0.03225  0.11724  0.03149  Biso   1.000  C
  C218     1.0000 0.03170  0.03023  0.11740  Biso   1.000  C
  C219     1.0000 0.11800  0.03182  0.03102  Biso   1.000  C
  C220     1.0000 0.96724  0.88406  0.96708  Biso   1.000  C
  C221     1.0000 0.88424  0.96752  0.96700  Biso   1.000  C
  C222     1.0000 0.96750  0.96637  0.88384  Biso   1.000  C
  H161     1.0000 0.91622  0.01870  0.01788  Biso   1.000  H
  H162     1.0000 0.01900  0.01813  0.91513  Biso   1.000  H
  H163     1.0000 0.05341  0.05256  0.05268  Biso   1.000  H
  H164     1.0000 0.01811  0.91526  0.01830  Biso   1.000  H
  H165     1.0000 0.97007  0.92130  0.08468  Biso   1.000  H
  H166     1.0000 0.03423  0.91544  0.08121  Biso   1.000  H
  H167     1.0000 0.97668  0.06041  0.89485  Biso   1.000  H
  H168     1.0000 0.01942  0.10051  0.93761  Biso   1.000  H
  H169     1.0000 0.89566  0.97734  0.05998  Biso   1.000  H
  H170     1.0000 0.93806  0.01890  0.09991  Biso   1.000  H
  H171     1.0000 0.06228  0.97632  0.89629  Biso   1.000  H
  H172     1.0000 0.10059  0.01910  0.93702  Biso   1.000  H
  H173     1.0000 0.93850  0.10035  0.01920  Biso   1.000  H
  H174     1.0000 0.89816  0.06289  0.97658  Biso   1.000  H
  H175     1.0000 0.10258  0.93996  0.01707  Biso   1.000  H
  H176     1.0000 0.06137  0.89566  0.97637  Biso   1.000  H
  O161     1.0000 0.10035  0.54984  0.50294  Biso   1.000  O
  O162     1.0000 0.08661  0.54511  0.43511  Biso   1.000  O
  O163     1.0000 0.00231  0.60176  0.54897  Biso   1.000  O
  O164     1.0000 0.93787  0.59140  0.54517  Biso   1.000  O
  O165     1.0000 0.04832  0.50368  0.60116  Biso   1.000  O
  O166     1.0000 0.04362  0.43590  0.58733  Biso   1.000  O
  O167     1.0000 0.89933  0.49502  0.44837  Biso   1.000  O
  O168     1.0000 0.90925  0.56190  0.45588  Biso   1.000  O
  O169     1.0000 0.99474  0.44902  0.39963  Biso   1.000  O
  O170     1.0000 0.06536  0.45518  0.41306  Biso   1.000  O
  O171     1.0000 0.94952  0.39991  0.49484  Biso   1.000  O
  O172     1.0000 0.95363  0.41379  0.56521  Biso   1.000  O
  O173     1.0000 0.89929  0.44956  0.49438  Biso   1.000  O
  O174     1.0000 0.91207  0.45453  0.56446  Biso   1.000  O
  O175     1.0000 0.99575  0.39983  0.44952  Biso   1.000  O
  O176     1.0000 0.06554  0.41385  0.45427  Biso   1.000  O
  O177     1.0000 0.94866  0.49438  0.39937  Biso   1.000  O
  O178     1.0000 0.95520  0.56497  0.41180  Biso   1.000  O
  O179     1.0000 0.10048  0.50405  0.54891  Biso   1.000  O
  O180     1.0000 0.08695  0.43598  0.54403  Biso   1.000  O
  O181     1.0000 0.00245  0.54954  0.60101  Biso   1.000  O
  O182     1.0000 0.93391  0.54193  0.58662  Biso   1.000  O
  O183     1.0000 0.04822  0.60178  0.50312  Biso   1.000  O
  O184     1.0000 0.04292  0.58806  0.43509  Biso   1.000  O
  Zr31     1.0000 0.04508  0.54656  0.47873  Biso   1.000  Zr
  O185     1.0000 0.01168  0.51239  0.44179  Biso   1.000  O
  Zr32     1.0000 0.97808  0.54643  0.54571  Biso   1.000  Zr
  O186     1.0000 0.94147  0.51252  0.51144  Biso   1.000  O
  Zr33     1.0000 0.04535  0.47954  0.54581  Biso   1.000  Zr
  O187     1.0000 0.01170  0.44259  0.51195  Biso   1.000  O
  Zr34     1.0000 0.95347  0.52102  0.45333  Biso   1.000  Zr
  O188     1.0000 0.98676  0.55875  0.48739  Biso   1.000  O
  Zr35     1.0000 0.02084  0.45440  0.45384  Biso   1.000  Zr
  O189     1.0000 0.05791  0.48847  0.48768  Biso   1.000  O
  Zr36     1.0000 0.95349  0.45440  0.52055  Biso   1.000  Zr
  O190     1.0000 0.98716  0.48826  0.55807  Biso   1.000  O
  O191     1.0000 0.03551  0.53691  0.53618  Biso   1.000  O
  O192     1.0000 0.96296  0.46335  0.46282  Biso   1.000  O
  C223     1.0000 0.11640  0.53179  0.53071  Biso   1.000  C
  C224     1.0000 0.03014  0.61777  0.53092  Biso   1.000  C
  C225     1.0000 0.03008  0.53136  0.61718  Biso   1.000  C
  C226     1.0000 0.88356  0.46684  0.46597  Biso   1.000  C
  C227     1.0000 0.96625  0.46607  0.38381  Biso   1.000  C
  C228     1.0000 0.96756  0.38409  0.46699  Biso   1.000  C
  H177     1.0000 0.01791  0.51831  0.41498  Biso   1.000  H
  H178     1.0000 0.01782  0.41580  0.51813  Biso   1.000  H
  H179     1.0000 0.05172  0.55318  0.55246  Biso   1.000  H
  H180     1.0000 0.91448  0.51855  0.51687  Biso   1.000  H
  H181     1.0000 0.92014  0.58479  0.46831  Biso   1.000  H
  H182     1.0000 0.91459  0.58180  0.53249  Biso   1.000  H
  H183     1.0000 0.06184  0.39714  0.47667  Biso   1.000  H
  H184     1.0000 0.09986  0.43828  0.51904  Biso   1.000  H
  H185     1.0000 0.97586  0.55919  0.39351  Biso   1.000  H
  H186     1.0000 0.01764  0.60043  0.43707  Biso   1.000  H
  H187     1.0000 0.97564  0.39663  0.56123  Biso   1.000  H
  H188     1.0000 0.01832  0.43767  0.59971  Biso   1.000  H
  H189     1.0000 0.09892  0.51976  0.43667  Biso   1.000  H
  H190     1.0000 0.06024  0.47617  0.39494  Biso   1.000  H
  H191     1.0000 0.93807  0.51774  0.60054  Biso   1.000  H
  H192     1.0000 0.89535  0.47689  0.56050  Biso   1.000  H
  O193     1.0000 0.60142  0.04910  0.50422  Biso   1.000  O
  O194     1.0000 0.58803  0.04369  0.43596  Biso   1.000  O
  O195     1.0000 0.50358  0.10120  0.54933  Biso   1.000  O
  O196     1.0000 0.43933  0.09107  0.54702  Biso   1.000  O
  O197     1.0000 0.54986  0.00257  0.60153  Biso   1.000  O
  O198     1.0000 0.54398  0.93475  0.58745  Biso   1.000  O
  O199     1.0000 0.39995  0.99564  0.44873  Biso   1.000  O
  O200     1.0000 0.41042  0.06257  0.45731  Biso   1.000  O
  O201     1.0000 0.49472  0.94960  0.39978  Biso   1.000  O
  O202     1.0000 0.56564  0.95474  0.41346  Biso   1.000  O
  O203     1.0000 0.44968  0.89979  0.49574  Biso   1.000  O
  O204     1.0000 0.45285  0.91314  0.56503  Biso   1.000  O
  O205     1.0000 0.39968  0.94992  0.49447  Biso   1.000  O
  O206     1.0000 0.41299  0.95560  0.56544  Biso   1.000  O
  O207     1.0000 0.49556  0.89961  0.45006  Biso   1.000  O
  O208     1.0000 0.56490  0.91269  0.45362  Biso   1.000  O
  O209     1.0000 0.44906  0.99538  0.39985  Biso   1.000  O
  O210     1.0000 0.45619  0.06556  0.41286  Biso   1.000  O
  O211     1.0000 0.60131  0.00303  0.54991  Biso   1.000  O
  O212     1.0000 0.58747  0.93480  0.54368  Biso   1.000  O
  O213     1.0000 0.50440  0.04884  0.60163  Biso   1.000  O
  O214     1.0000 0.43534  0.04132  0.58762  Biso   1.000  O
  O215     1.0000 0.54946  0.10104  0.50344  Biso   1.000  O
  O216     1.0000 0.54482  0.08720  0.43564  Biso   1.000  O
  Zr37     1.0000 0.54629  0.04578  0.47937  Biso   1.000  Zr
  O217     1.0000 0.51237  0.01219  0.44236  Biso   1.000  O
  Zr38     1.0000 0.47934  0.04591  0.54653  Biso   1.000  Zr
  O218     1.0000 0.44226  0.01262  0.51213  Biso   1.000  O
  Zr39     1.0000 0.54615  0.97860  0.54618  Biso   1.000  Zr
  O219     1.0000 0.51198  0.94220  0.51224  Biso   1.000  O
  Zr40     1.0000 0.45425  0.02131  0.45406  Biso   1.000  Zr
  O220     1.0000 0.48806  0.05845  0.48824  Biso   1.000  O
  Zr41     1.0000 0.52099  0.95408  0.45410  Biso   1.000  Zr
  O221     1.0000 0.55861  0.98755  0.48803  Biso   1.000  O
  Zr42     1.0000 0.45384  0.95440  0.52100  Biso   1.000  Zr
  O222     1.0000 0.48804  0.98765  0.55864  Biso   1.000  O
  O223     1.0000 0.53663  0.03605  0.53675  Biso   1.000  O
  O224     1.0000 0.46321  0.96348  0.46324  Biso   1.000  O
  C229     1.0000 0.61726  0.03106  0.53217  Biso   1.000  C
  C230     1.0000 0.53137  0.11712  0.53114  Biso   1.000  C
  C231     1.0000 0.53212  0.03052  0.61759  Biso   1.000  C
  C232     1.0000 0.38404  0.96739  0.46609  Biso   1.000  C
  C233     1.0000 0.46643  0.96711  0.38403  Biso   1.000  C
  C234     1.0000 0.46756  0.88389  0.46786  Biso   1.000  C
  H193     1.0000 0.51861  0.01819  0.41557  Biso   1.000  H
  H194     1.0000 0.51789  0.91534  0.51831  Biso   1.000  H
  H195     1.0000 0.55282  0.05237  0.55298  Biso   1.000  H
  H196     1.0000 0.41534  0.01885  0.51765  Biso   1.000  H
  H197     1.0000 0.42166  0.08530  0.46971  Biso   1.000  H
  H198     1.0000 0.41613  0.08195  0.53385  Biso   1.000  H
  H199     1.0000 0.56245  0.89730  0.47711  Biso   1.000  H
  H200     1.0000 0.60082  0.93777  0.51899  Biso   1.000  H
  H201     1.0000 0.47701  0.05994  0.39471  Biso   1.000  H
  H202     1.0000 0.51955  0.09965  0.43731  Biso   1.000  H
  H203     1.0000 0.47630  0.89766  0.56279  Biso   1.000  H
  H204     1.0000 0.51904  0.93722  0.60043  Biso   1.000  H
  H205     1.0000 0.60057  0.01850  0.43812  Biso   1.000  H
  H206     1.0000 0.56073  0.97586  0.39545  Biso   1.000  H
  H207     1.0000 0.43985  0.01736  0.60183  Biso   1.000  H
  H208     1.0000 0.39506  0.97671  0.56020  Biso   1.000  H
  O225     1.0000 0.50347  0.60101  0.04920  Biso   1.000  O
  O226     1.0000 0.43531  0.58746  0.04398  Biso   1.000  O
  O227     1.0000 0.54895  0.50312  0.10113  Biso   1.000  O
  O228     1.0000 0.54598  0.43882  0.09095  Biso   1.000  O
  O229     1.0000 0.60105  0.54929  0.00266  Biso   1.000  O
  O230     1.0000 0.58704  0.54401  0.93488  Biso   1.000  O
  O231     1.0000 0.44873  0.39960  0.99492  Biso   1.000  O
  O232     1.0000 0.45652  0.40993  0.06198  Biso   1.000  O
  O233     1.0000 0.39941  0.49505  0.94916  Biso   1.000  O
  O234     1.0000 0.41282  0.56532  0.95413  Biso   1.000  O
  O235     1.0000 0.49487  0.44922  0.89982  Biso   1.000  O
  O236     1.0000 0.56509  0.45379  0.91323  Biso   1.000  O
  O237     1.0000 0.49461  0.39960  0.94934  Biso   1.000  O
  O238     1.0000 0.56493  0.41275  0.95473  Biso   1.000  O
  O239     1.0000 0.44921  0.49509  0.89972  Biso   1.000  O
  O240     1.0000 0.45420  0.56538  0.91306  Biso   1.000  O
  O241     1.0000 0.39929  0.44920  0.99476  Biso   1.000  O
  O242     1.0000 0.41205  0.45531  0.06483  Biso   1.000  O
  O243     1.0000 0.54921  0.60105  0.00318  Biso   1.000  O
  O244     1.0000 0.54341  0.58738  0.93501  Biso   1.000  O
  O245     1.0000 0.60107  0.50369  0.04879  Biso   1.000  O
  O246     1.0000 0.58697  0.43485  0.04132  Biso   1.000  O
  O247     1.0000 0.50304  0.54897  0.10107  Biso   1.000  O
  O248     1.0000 0.43514  0.54404  0.08731  Biso   1.000  O
  Zr43     1.0000 0.47882  0.54582  0.04584  Biso   1.000  Zr
  O249     1.0000 0.44191  0.51209  0.01199  Biso   1.000  O
  Zr44     1.0000 0.54592  0.47889  0.04585  Biso   1.000  Zr
  O250     1.0000 0.51166  0.44198  0.01227  Biso   1.000  O
  Zr45     1.0000 0.54570  0.54592  0.97868  Biso   1.000  Zr
  O251     1.0000 0.51186  0.51193  0.94200  Biso   1.000  O
  Zr46     1.0000 0.45355  0.45390  0.02084  Biso   1.000  Zr
  O252     1.0000 0.48760  0.48754  0.05827  Biso   1.000  O
  Zr47     1.0000 0.45376  0.52095  0.95393  Biso   1.000  Zr
  O253     1.0000 0.48756  0.55838  0.98768  Biso   1.000  O
  Zr48     1.0000 0.52069  0.45381  0.95412  Biso   1.000  Zr
  O254     1.0000 0.55818  0.48781  0.98765  Biso   1.000  O
  O255     1.0000 0.53622  0.53623  0.03611  Biso   1.000  O
  O256     1.0000 0.46291  0.46315  0.96314  Biso   1.000  O
  C235     1.0000 0.53134  0.61695  0.03115  Biso   1.000  C
  C236     1.0000 0.53082  0.53092  0.11708  Biso   1.000  C
  C237     1.0000 0.61708  0.53135  0.03051  Biso   1.000  C
  C238     1.0000 0.46630  0.38381  0.96671  Biso   1.000  C
  C239     1.0000 0.38355  0.46677  0.96654  Biso   1.000  C
  C240     1.0000 0.46671  0.46683  0.88414  Biso   1.000  C
  H209     1.0000 0.41511  0.51831  0.01796  Biso   1.000  H
  H210     1.0000 0.51794  0.51790  0.91516  Biso   1.000  H
  H211     1.0000 0.55248  0.55242  0.05240  Biso   1.000  H
  H212     1.0000 0.51719  0.41504  0.01841  Biso   1.000  H
  H213     1.0000 0.46897  0.42104  0.08476  Biso   1.000  H
  H214     1.0000 0.53311  0.41553  0.08160  Biso   1.000  H
  H215     1.0000 0.47617  0.56118  0.89591  Biso   1.000  H
  H216     1.0000 0.51846  0.60033  0.93756  Biso   1.000  H
  H217     1.0000 0.39454  0.47683  0.05987  Biso   1.000  H
  H218     1.0000 0.43695  0.51875  0.09971  Biso   1.000  H
  H219     1.0000 0.56113  0.47585  0.89613  Biso   1.000  H
  H220     1.0000 0.59959  0.51881  0.93685  Biso   1.000  H
  H221     1.0000 0.43736  0.60004  0.01880  Biso   1.000  H
  H222     1.0000 0.39568  0.56123  0.97614  Biso   1.000  H
  H223     1.0000 0.60107  0.43922  0.01726  Biso   1.000  H
  H224     1.0000 0.56049  0.39555  0.97662  Biso   1.000  H
  O257     1.0000 0.80033  0.35084  0.49593  Biso   1.000  O
  O258     1.0000 0.79519  0.33744  0.56385  Biso   1.000  O
  O259     1.0000 0.85196  0.25273  0.45025  Biso   1.000  O
  O260     1.0000 0.84169  0.18840  0.45364  Biso   1.000  O
  O261     1.0000 0.75412  0.29916  0.39826  Biso   1.000  O
  O262     1.0000 0.68624  0.29395  0.41181  Biso   1.000  O
  O263     1.0000 0.74597  0.14982  0.55127  Biso   1.000  O
  O264     1.0000 0.81276  0.15990  0.54294  Biso   1.000  O
  O265     1.0000 0.70024  0.24547  0.59986  Biso   1.000  O
  O266     1.0000 0.70477  0.31554  0.58618  Biso   1.000  O
  O267     1.0000 0.65029  0.19959  0.50407  Biso   1.000  O
  O268     1.0000 0.66370  0.20273  0.43472  Biso   1.000  O
  O269     1.0000 0.70031  0.14957  0.50536  Biso   1.000  O
  O270     1.0000 0.70606  0.16280  0.43434  Biso   1.000  O
  O271     1.0000 0.65028  0.24547  0.54972  Biso   1.000  O
  O272     1.0000 0.66394  0.31555  0.54483  Biso   1.000  O
  O273     1.0000 0.74595  0.19961  0.60008  Biso   1.000  O
  O274     1.0000 0.81594  0.20569  0.58713  Biso   1.000  O
  O275     1.0000 0.75436  0.35093  0.45015  Biso   1.000  O
  O276     1.0000 0.68599  0.33718  0.45556  Biso   1.000  O
  O277     1.0000 0.80005  0.25335  0.39838  Biso   1.000  O
  O278     1.0000 0.79195  0.18452  0.41245  Biso   1.000  O
  O279     1.0000 0.85196  0.29872  0.49603  Biso   1.000  O
  O280     1.0000 0.83817  0.29371  0.56421  Biso   1.000  O
  Zr49     1.0000 0.79680  0.29569  0.52044  Biso   1.000  Zr
  O281     1.0000 0.76280  0.26219  0.55733  Biso   1.000  O
  Zr50     1.0000 0.79669  0.22858  0.45346  Biso   1.000  Zr
  O282     1.0000 0.76308  0.19182  0.48782  Biso   1.000  O
  Zr51     1.0000 0.72974  0.29579  0.45347  Biso   1.000  Zr
  O283     1.0000 0.69296  0.26187  0.48728  Biso   1.000  O
  Zr52     1.0000 0.77176  0.20401  0.54584  Biso   1.000  Zr
  O284     1.0000 0.80924  0.23742  0.51172  Biso   1.000  O
  Zr53     1.0000 0.70473  0.27105  0.54537  Biso   1.000  Zr
  O285     1.0000 0.73866  0.30835  0.51159  Biso   1.000  O
  Zr54     1.0000 0.70493  0.20365  0.47877  Biso   1.000  Zr
  O286     1.0000 0.73849  0.23759  0.44118  Biso   1.000  O
  O287     1.0000 0.78707  0.28597  0.46309  Biso   1.000  O
  O288     1.0000 0.71396  0.21319  0.53651  Biso   1.000  O
  C241     1.0000 0.78233  0.36681  0.46807  Biso   1.000  C
  C242     1.0000 0.86788  0.28064  0.46822  Biso   1.000  C
  C243     1.0000 0.78206  0.28120  0.38240  Biso   1.000  C
  C244     1.0000 0.71783  0.13401  0.53371  Biso   1.000  C
  C245     1.0000 0.71787  0.21739  0.61571  Biso   1.000  C
  C246     1.0000 0.63447  0.21744  0.53201  Biso   1.000  C
  H225     1.0000 0.76877  0.26852  0.58411  Biso   1.000  H
  H226     1.0000 0.66614  0.26787  0.48111  Biso   1.000  H
  H227     1.0000 0.80339  0.30219  0.44688  Biso   1.000  H
  H228     1.0000 0.76920  0.16486  0.48240  Biso   1.000  H
  H229     1.0000 0.83555  0.17089  0.53041  Biso   1.000  H
  H230     1.0000 0.83217  0.16504  0.46624  Biso   1.000  H
  H231     1.0000 0.64709  0.31159  0.52258  Biso   1.000  H
  H232     1.0000 0.68863  0.35036  0.48038  Biso   1.000  H
  H233     1.0000 0.81100  0.22726  0.60459  Biso   1.000  H
  H234     1.0000 0.85106  0.26871  0.56191  Biso   1.000  H
  H235     1.0000 0.64831  0.22625  0.43688  Biso   1.000  H
  H236     1.0000 0.68832  0.26878  0.39922  Biso   1.000  H
  H237     1.0000 0.76995  0.34994  0.56196  Biso   1.000  H
  H238     1.0000 0.72704  0.31182  0.60306  Biso   1.000  H
  H239     1.0000 0.76805  0.18914  0.39817  Biso   1.000  H
  H240     1.0000 0.72708  0.14477  0.43964  Biso   1.000  H
  O289     1.0000 0.85206  0.75446  0.95102  Biso   1.000  O
  O290     1.0000 0.83832  0.68628  0.95561  Biso   1.000  O
  O291     1.0000 0.75468  0.80015  0.89822  Biso   1.000  O
  O292     1.0000 0.69018  0.79707  0.90805  Biso   1.000  O
  O293     1.0000 0.80017  0.85203  0.99712  Biso   1.000  O
  O294     1.0000 0.79425  0.83791  0.06491  Biso   1.000  O
  O295     1.0000 0.65047  0.69962  0.00401  Biso   1.000  O
  O296     1.0000 0.66091  0.70808  0.93689  Biso   1.000  O
  O297     1.0000 0.74581  0.65013  0.04943  Biso   1.000  O
  O298     1.0000 0.81585  0.66375  0.04556  Biso   1.000  O
  O299     1.0000 0.69964  0.74589  0.09942  Biso   1.000  O
  O300     1.0000 0.70440  0.81623  0.08575  Biso   1.000  O
  O301     1.0000 0.65012  0.74575  0.04944  Biso   1.000  O
  O302     1.0000 0.66317  0.81574  0.04458  Biso   1.000  O
  O303     1.0000 0.74537  0.70007  0.09960  Biso   1.000  O
  O304     1.0000 0.81566  0.70491  0.08655  Biso   1.000  O
  O305     1.0000 0.70011  0.65018  0.00357  Biso   1.000  O
  O306     1.0000 0.70611  0.66329  0.93404  Biso   1.000  O
  O307     1.0000 0.85182  0.80020  0.99703  Biso   1.000  O
  O308     1.0000 0.83775  0.79435  0.06496  Biso   1.000  O
  O309     1.0000 0.75483  0.85214  0.95074  Biso   1.000  O
  O310     1.0000 0.68603  0.83818  0.95760  Biso   1.000  O
  O311     1.0000 0.80069  0.75451  0.89860  Biso   1.000  O
  O312     1.0000 0.79525  0.68651  0.91196  Biso   1.000  O
  Zr55     1.0000 0.79684  0.72995  0.95369  Biso   1.000  Zr
  O313     1.0000 0.76290  0.69302  0.98728  Biso   1.000  O
  Zr56     1.0000 0.72999  0.79702  0.95338  Biso   1.000  Zr
  O314     1.0000 0.69289  0.76278  0.98678  Biso   1.000  O
  Zr57     1.0000 0.79655  0.79666  0.02104  Biso   1.000  Zr
  O315     1.0000 0.76241  0.76273  0.05747  Biso   1.000  O
  Zr58     1.0000 0.70476  0.70468  0.97812  Biso   1.000  Zr
  O316     1.0000 0.73865  0.73873  0.94089  Biso   1.000  O
  Zr59     1.0000 0.77145  0.70466  0.04544  Biso   1.000  Zr
  O317     1.0000 0.80906  0.73854  0.01196  Biso   1.000  O
  Zr60     1.0000 0.70440  0.77165  0.04505  Biso   1.000  Zr
  O318     1.0000 0.73852  0.80917  0.01168  Biso   1.000  O
  O319     1.0000 0.78724  0.78731  0.96352  Biso   1.000  O
  O320     1.0000 0.71369  0.71385  0.03597  Biso   1.000  O
  C247     1.0000 0.86788  0.78231  0.96919  Biso   1.000  C
  C248     1.0000 0.78282  0.78233  0.88238  Biso   1.000  C
  C249     1.0000 0.78242  0.86809  0.96918  Biso   1.000  C
  C250     1.0000 0.63459  0.71740  0.03201  Biso   1.000  C
  C251     1.0000 0.71781  0.63433  0.03160  Biso   1.000  C
  C252     1.0000 0.71722  0.71775  0.11521  Biso   1.000  C
  H241     1.0000 0.76919  0.66625  0.98124  Biso   1.000  H
  H242     1.0000 0.76826  0.76876  0.08435  Biso   1.000  H
  H243     1.0000 0.80358  0.80358  0.94738  Biso   1.000  H
  H244     1.0000 0.66598  0.76835  0.98052  Biso   1.000  H
  H245     1.0000 0.67220  0.72033  0.91409  Biso   1.000  H
  H246     1.0000 0.66674  0.78445  0.91735  Biso   1.000  H
  H247     1.0000 0.81147  0.72692  0.10365  Biso   1.000  H
  H248     1.0000 0.85062  0.76935  0.06254  Biso   1.000  H
  H249     1.0000 0.72843  0.64660  0.93821  Biso   1.000  H
  H250     1.0000 0.77018  0.68865  0.89916  Biso   1.000  H
  H251     1.0000 0.72614  0.81203  0.10320  Biso   1.000  H
  H252     1.0000 0.76921  0.85071  0.06254  Biso   1.000  H
  H253     1.0000 0.85091  0.68832  0.98079  Biso   1.000  H
  H254     1.0000 0.81237  0.64712  0.02306  Biso   1.000  H
  H255     1.0000 0.69009  0.85206  0.98184  Biso   1.000  H
  H256     1.0000 0.64664  0.81189  0.02207  Biso   1.000  H
  O321     1.0000 0.10246  0.19994  0.24619  Biso   1.000  O
  O322     1.0000 0.08866  0.20489  0.31399  Biso   1.000  O
  O323     1.0000 0.00405  0.14796  0.20049  Biso   1.000  O
  O324     1.0000 0.93992  0.15873  0.20263  Biso   1.000  O
  O325     1.0000 0.05129  0.24593  0.14819  Biso   1.000  O
  O326     1.0000 0.04583  0.31389  0.16180  Biso   1.000  O
  O327     1.0000 0.90106  0.25436  0.30003  Biso   1.000  O
  O328     1.0000 0.91121  0.18738  0.29202  Biso   1.000  O
  O329     1.0000 0.99675  0.29959  0.34978  Biso   1.000  O
  O330     1.0000 0.06688  0.29515  0.33612  Biso   1.000  O
  O331     1.0000 0.95051  0.34948  0.25463  Biso   1.000  O
  O332     1.0000 0.95597  0.33638  0.18398  Biso   1.000  O
  O333     1.0000 0.90101  0.29976  0.25386  Biso   1.000  O
  O334     1.0000 0.91460  0.29519  0.18384  Biso   1.000  O
  O335     1.0000 0.99617  0.34943  0.30050  Biso   1.000  O
  O336     1.0000 0.06673  0.33632  0.29477  Biso   1.000  O
  O337     1.0000 0.95047  0.25430  0.34948  Biso   1.000  O
  O338     1.0000 0.95647  0.18435  0.33666  Biso   1.000  O
  O339     1.0000 0.10273  0.24593  0.20053  Biso   1.000  O
  O340     1.0000 0.08898  0.31406  0.20554  Biso   1.000  O
  O341     1.0000 0.00553  0.20008  0.14801  Biso   1.000  O
  O342     1.0000 0.93670  0.20823  0.16160  Biso   1.000  O
  O343     1.0000 0.04989  0.14796  0.24640  Biso   1.000  O
  O344     1.0000 0.04510  0.16202  0.31422  Biso   1.000  O
  Zr61     1.0000 0.04711  0.20331  0.27038  Biso   1.000  Zr
  O345     1.0000 0.01339  0.23726  0.30713  Biso   1.000  O
  Zr62     1.0000 0.98039  0.20347  0.20299  Biso   1.000  Zr
  O346     1.0000 0.94351  0.23717  0.23713  Biso   1.000  O
  Zr63     1.0000 0.04755  0.27036  0.20342  Biso   1.000  Zr
  O347     1.0000 0.01359  0.30726  0.23719  Biso   1.000  O
  Zr64     1.0000 0.95525  0.22842  0.29525  Biso   1.000  Zr
  O348     1.0000 0.98887  0.19096  0.26132  Biso   1.000  O
  Zr65     1.0000 0.02240  0.29534  0.29532  Biso   1.000  Zr
  O349     1.0000 0.05980  0.26144  0.26162  Biso   1.000  O
  Zr66     1.0000 0.95547  0.29535  0.22825  Biso   1.000  Zr
  O350     1.0000 0.98945  0.26166  0.19081  Biso   1.000  O
  O351     1.0000 0.03776  0.21294  0.21292  Biso   1.000  O
  O352     1.0000 0.96462  0.28616  0.28601  Biso   1.000  O
  C253     1.0000 0.11867  0.21797  0.21845  Biso   1.000  C
  C254     1.0000 0.03161  0.13186  0.21883  Biso   1.000  C
  C255     1.0000 0.03351  0.21798  0.13206  Biso   1.000  C
  C256     1.0000 0.88532  0.28235  0.28216  Biso   1.000  C
  C257     1.0000 0.96839  0.28217  0.36535  Biso   1.000  C
  C258     1.0000 0.96785  0.36504  0.28307  Biso   1.000  C
  H257     1.0000 0.01955  0.23125  0.33393  Biso   1.000  H
  H258     1.0000 0.01963  0.33409  0.23117  Biso   1.000  H
  H259     1.0000 0.05403  0.19650  0.19687  Biso   1.000  H
  H260     1.0000 0.91658  0.23110  0.23150  Biso   1.000  H
  H261     1.0000 0.92231  0.16459  0.27960  Biso   1.000  H
  H262     1.0000 0.91666  0.16820  0.21545  Biso   1.000  H
  H263     1.0000 0.06191  0.35409  0.27341  Biso   1.000  H
  H264     1.0000 0.10144  0.31203  0.23078  Biso   1.000  H
  H265     1.0000 0.97797  0.18922  0.35422  Biso   1.000  H
  H266     1.0000 0.01986  0.14953  0.31227  Biso   1.000  H
  H267     1.0000 0.97754  0.35392  0.18863  Biso   1.000  H
  H268     1.0000 0.02054  0.31208  0.14941  Biso   1.000  H
  H269     1.0000 0.10124  0.23009  0.31212  Biso   1.000  H
  H270     1.0000 0.06306  0.27289  0.35299  Biso   1.000  H
  H271     1.0000 0.94137  0.23220  0.14744  Biso   1.000  H
  H272     1.0000 0.89797  0.27272  0.18751  Biso   1.000  H
  O353     1.0000 0.75435  0.95131  0.85176  Biso   1.000  O
  O354     1.0000 0.68609  0.95592  0.83802  Biso   1.000  O
  O355     1.0000 0.79979  0.89859  0.75374  Biso   1.000  O
  O356     1.0000 0.79648  0.90865  0.68938  Biso   1.000  O
  O357     1.0000 0.85176  0.99659  0.80001  Biso   1.000  O
  O358     1.0000 0.83815  0.06475  0.79357  Biso   1.000  O
  O359     1.0000 0.69919  0.00468  0.65009  Biso   1.000  O
  O360     1.0000 0.70752  0.93749  0.66052  Biso   1.000  O
  O361     1.0000 0.64995  0.05018  0.74540  Biso   1.000  O
  O362     1.0000 0.66377  0.04554  0.81583  Biso   1.000  O
  O363     1.0000 0.74595  0.09999  0.69975  Biso   1.000  O
  O364     1.0000 0.81577  0.08635  0.70367  Biso   1.000  O
  O365     1.0000 0.74502  0.05031  0.65000  Biso   1.000  O
  O366     1.0000 0.81553  0.04461  0.66295  Biso   1.000  O
  O367     1.0000 0.70008  0.10010  0.74543  Biso   1.000  O
  O368     1.0000 0.70453  0.08698  0.81538  Biso   1.000  O
  O369     1.0000 0.64984  0.00442  0.69970  Biso   1.000  O
  O370     1.0000 0.66281  0.93469  0.70578  Biso   1.000  O
  O371     1.0000 0.80005  0.99736  0.85153  Biso   1.000  O
  O372     1.0000 0.79463  0.06518  0.83728  Biso   1.000  O
  O373     1.0000 0.85166  0.95045  0.75443  Biso   1.000  O
  O374     1.0000 0.83781  0.95835  0.68547  Biso   1.000  O
  O375     1.0000 0.75416  0.89880  0.79987  Biso   1.000  O
  O376     1.0000 0.68623  0.91231  0.79502  Biso   1.000  O
  Zr67     1.0000 0.72970  0.95401  0.79648  Biso   1.000  Zr
  O377     1.0000 0.69271  0.98770  0.76260  Biso   1.000  O
  Zr68     1.0000 0.79664  0.95380  0.72940  Biso   1.000  Zr
  O378     1.0000 0.76235  0.98730  0.69242  Biso   1.000  O
  Zr69     1.0000 0.79661  0.02117  0.79617  Biso   1.000  Zr
  O379     1.0000 0.76259  0.05770  0.76219  Biso   1.000  O
  Zr70     1.0000 0.70425  0.97872  0.70439  Biso   1.000  Zr
  O380     1.0000 0.73834  0.94141  0.73819  Biso   1.000  O
  Zr71     1.0000 0.70446  0.04581  0.77124  Biso   1.000  Zr
  O381     1.0000 0.73844  0.01225  0.80873  Biso   1.000  O
  Zr72     1.0000 0.77136  0.04548  0.70409  Biso   1.000  Zr
  O382     1.0000 0.80896  0.01202  0.73808  Biso   1.000  O
  O383     1.0000 0.78701  0.96373  0.78674  Biso   1.000  O
  O384     1.0000 0.71355  0.03650  0.71345  Biso   1.000  O
  C259     1.0000 0.78215  0.96957  0.86765  Biso   1.000  C
  C260     1.0000 0.78189  0.88274  0.78174  Biso   1.000  C
  C261     1.0000 0.86761  0.96848  0.78230  Biso   1.000  C
  C262     1.0000 0.71666  0.03295  0.63427  Biso   1.000  C
  C263     1.0000 0.63400  0.03259  0.71728  Biso   1.000  C
  C264     1.0000 0.71785  0.11577  0.71738  Biso   1.000  C
  H273     1.0000 0.66593  0.98171  0.76888  Biso   1.000  H
  H274     1.0000 0.76867  0.08456  0.76810  Biso   1.000  H
  H275     1.0000 0.80312  0.94749  0.80312  Biso   1.000  H
  H276     1.0000 0.76784  0.98112  0.66548  Biso   1.000  H
  H277     1.0000 0.71987  0.91473  0.67176  Biso   1.000  H
  H278     1.0000 0.78407  0.91815  0.66591  Biso   1.000  H
  H279     1.0000 0.72702  0.10357  0.81170  Biso   1.000  H
  H280     1.0000 0.76959  0.06300  0.85012  Biso   1.000  H
  H281     1.0000 0.64584  0.93916  0.72783  Biso   1.000  H
  H282     1.0000 0.68796  0.89989  0.76974  Biso   1.000  H
  H283     1.0000 0.81265  0.10270  0.72642  Biso   1.000  H
  H284     1.0000 0.85124  0.06188  0.76874  Biso   1.000  H
  H285     1.0000 0.68809  0.98114  0.85052  Biso   1.000  H
  H286     1.0000 0.64638  0.02375  0.81161  Biso   1.000  H
  H287     1.0000 0.85202  0.98232  0.68998  Biso   1.000  H
  H288     1.0000 0.81083  0.02288  0.64562  Biso   1.000  H
  O385     1.0000 0.74641  0.60126  0.20000  Biso   1.000  O
  O386     1.0000 0.81442  0.58775  0.20504  Biso   1.000  O
  O387     1.0000 0.70081  0.50337  0.14798  Biso   1.000  O
  O388     1.0000 0.70396  0.43900  0.15819  Biso   1.000  O
  O389     1.0000 0.64865  0.54939  0.24638  Biso   1.000  O
  O390     1.0000 0.66257  0.54422  0.31414  Biso   1.000  O
  O391     1.0000 0.80112  0.39996  0.25379  Biso   1.000  O
  O392     1.0000 0.79340  0.41041  0.18698  Biso   1.000  O
  O393     1.0000 0.85014  0.49519  0.30017  Biso   1.000  O
  O394     1.0000 0.83674  0.56579  0.29478  Biso   1.000  O
  O395     1.0000 0.75507  0.44955  0.34944  Biso   1.000  O
  O396     1.0000 0.68477  0.45394  0.33600  Biso   1.000  O
  O397     1.0000 0.75524  0.39980  0.29948  Biso   1.000  O
  O398     1.0000 0.68496  0.41293  0.29462  Biso   1.000  O
  O399     1.0000 0.80046  0.49570  0.34961  Biso   1.000  O
  O400     1.0000 0.79563  0.56571  0.33614  Biso   1.000  O
  O401     1.0000 0.85019  0.44910  0.25472  Biso   1.000  O
  O402     1.0000 0.83773  0.45623  0.18425  Biso   1.000  O
  O403     1.0000 0.70059  0.60126  0.24594  Biso   1.000  O
  O404     1.0000 0.70613  0.58757  0.31410  Biso   1.000  O
  O405     1.0000 0.64870  0.50376  0.20028  Biso   1.000  O
  O406     1.0000 0.66285  0.43503  0.20771  Biso   1.000  O
  O407     1.0000 0.74666  0.54928  0.14804  Biso   1.000  O
  O408     1.0000 0.81465  0.54423  0.16187  Biso   1.000  O
  Zr73     1.0000 0.77092  0.54609  0.20328  Biso   1.000  Zr
  O409     1.0000 0.80786  0.51244  0.23719  Biso   1.000  O
  Zr74     1.0000 0.70387  0.47910  0.20326  Biso   1.000  Zr
  O410     1.0000 0.73814  0.44228  0.23688  Biso   1.000  O
  Zr75     1.0000 0.70399  0.54612  0.27042  Biso   1.000  Zr
  O411     1.0000 0.73784  0.51220  0.30715  Biso   1.000  O
  Zr76     1.0000 0.79623  0.45429  0.22823  Biso   1.000  Zr
  O412     1.0000 0.76215  0.48783  0.19079  Biso   1.000  O
  Zr77     1.0000 0.79593  0.52130  0.29526  Biso   1.000  Zr
  O413     1.0000 0.76211  0.55865  0.26145  Biso   1.000  O
  Zr78     1.0000 0.72914  0.45406  0.29508  Biso   1.000  Zr
  O414     1.0000 0.69161  0.48798  0.26148  Biso   1.000  O
  O415     1.0000 0.71351  0.53646  0.21299  Biso   1.000  O
  O416     1.0000 0.78685  0.46350  0.28598  Biso   1.000  O
  C265     1.0000 0.71855  0.61719  0.21804  Biso   1.000  C
  C266     1.0000 0.71891  0.53119  0.13201  Biso   1.000  C
  C267     1.0000 0.63265  0.53140  0.21854  Biso   1.000  C
  C268     1.0000 0.78347  0.38418  0.28188  Biso   1.000  C
  C269     1.0000 0.86576  0.46674  0.28294  Biso   1.000  C
  C270     1.0000 0.78306  0.46738  0.36523  Biso   1.000  C
  H289     1.0000 0.83466  0.51868  0.23125  Biso   1.000  H
  H290     1.0000 0.73175  0.51818  0.33399  Biso   1.000  H
  H291     1.0000 0.69725  0.55266  0.19671  Biso   1.000  H
  H292     1.0000 0.73263  0.41535  0.23071  Biso   1.000  H
  H293     1.0000 0.78106  0.42157  0.16417  Biso   1.000  H
  H294     1.0000 0.71690  0.41576  0.16756  Biso   1.000  H
  H295     1.0000 0.77330  0.56187  0.35292  Biso   1.000  H
  H296     1.0000 0.73105  0.60057  0.31159  Biso   1.000  H
  H297     1.0000 0.85608  0.47680  0.19017  Biso   1.000  H
  H298     1.0000 0.81277  0.51898  0.14940  Biso   1.000  H
  H299     1.0000 0.68869  0.47603  0.35307  Biso   1.000  H
  H300     1.0000 0.65018  0.51893  0.31229  Biso   1.000  H
  H301     1.0000 0.81261  0.60010  0.23035  Biso   1.000  H
  H302     1.0000 0.85450  0.56110  0.27339  Biso   1.000  H
  H303     1.0000 0.64882  0.43929  0.23182  Biso   1.000  H
  H304     1.0000 0.68912  0.39602  0.27245  Biso   1.000  H
  O417     1.0000 0.60158  0.20061  0.74664  Biso   1.000  O
  O418     1.0000 0.58786  0.20583  0.81472  Biso   1.000  O
  O419     1.0000 0.50418  0.14798  0.70109  Biso   1.000  O
  O420     1.0000 0.43968  0.15783  0.70433  Biso   1.000  O
  O421     1.0000 0.54961  0.24652  0.64866  Biso   1.000  O
  O422     1.0000 0.54433  0.31422  0.66237  Biso   1.000  O
  O423     1.0000 0.40007  0.25457  0.80085  Biso   1.000  O
  O424     1.0000 0.41046  0.18741  0.79335  Biso   1.000  O
  O425     1.0000 0.49569  0.30050  0.85008  Biso   1.000  O
  O426     1.0000 0.56533  0.29643  0.83682  Biso   1.000  O
  O427     1.0000 0.44908  0.34936  0.75434  Biso   1.000  O
  O428     1.0000 0.45437  0.33548  0.68386  Biso   1.000  O
  O429     1.0000 0.39975  0.29965  0.75438  Biso   1.000  O
  O430     1.0000 0.41298  0.29426  0.68446  Biso   1.000  O
  O431     1.0000 0.49494  0.34979  0.80003  Biso   1.000  O
  O432     1.0000 0.56580  0.33645  0.79446  Biso   1.000  O
  O433     1.0000 0.44967  0.25497  0.85027  Biso   1.000  O
  O434     1.0000 0.45575  0.18493  0.83797  Biso   1.000  O
  O435     1.0000 0.60146  0.24638  0.70064  Biso   1.000  O
  O436     1.0000 0.58753  0.31448  0.70600  Biso   1.000  O
  O437     1.0000 0.50417  0.20023  0.64883  Biso   1.000  O
  O438     1.0000 0.43544  0.20709  0.66290  Biso   1.000  O
  O439     1.0000 0.55005  0.14840  0.74696  Biso   1.000  O
  O440     1.0000 0.54452  0.16235  0.81487  Biso   1.000  O
  Zr79     1.0000 0.54636  0.20369  0.77108  Biso   1.000  Zr
  O441     1.0000 0.51254  0.23770  0.80775  Biso   1.000  O
  Zr80     1.0000 0.47950  0.20314  0.70399  Biso   1.000  Zr
  O442     1.0000 0.44247  0.23684  0.73799  Biso   1.000  O
  Zr81     1.0000 0.54625  0.27063  0.70392  Biso   1.000  Zr
  O443     1.0000 0.51213  0.30742  0.73750  Biso   1.000  O
  Zr82     1.0000 0.45436  0.22862  0.79616  Biso   1.000  Zr
  O444     1.0000 0.48812  0.19104  0.76236  Biso   1.000  O
  Zr83     1.0000 0.52123  0.29575  0.79562  Biso   1.000  Zr
  O445     1.0000 0.55875  0.26186  0.76209  Biso   1.000  O
  Zr84     1.0000 0.45409  0.29501  0.72865  Biso   1.000  Zr
  O446     1.0000 0.48820  0.26132  0.69143  Biso   1.000  O
  O447     1.0000 0.53679  0.21319  0.71363  Biso   1.000  O
  O448     1.0000 0.46346  0.28631  0.78648  Biso   1.000  O
  C271     1.0000 0.61747  0.21861  0.71872  Biso   1.000  C
  C272     1.0000 0.53211  0.13220  0.71921  Biso   1.000  C
  C273     1.0000 0.53170  0.21862  0.63273  Biso   1.000  C
  C274     1.0000 0.38420  0.28243  0.78285  Biso   1.000  C
  C275     1.0000 0.46745  0.28310  0.86588  Biso   1.000  C
  C276     1.0000 0.46660  0.36520  0.78248  Biso   1.000  C
  H305     1.0000 0.51878  0.23189  0.83458  Biso   1.000  H
  H306     1.0000 0.51802  0.33425  0.73130  Biso   1.000  H
  H307     1.0000 0.55308  0.19695  0.69741  Biso   1.000  H
  H308     1.0000 0.41556  0.23057  0.73247  Biso   1.000  H
  H309     1.0000 0.42165  0.16452  0.78117  Biso   1.000  H
  H310     1.0000 0.41631  0.16719  0.71702  Biso   1.000  H
  H311     1.0000 0.56064  0.35442  0.77336  Biso   1.000  H
  H312     1.0000 0.60047  0.31213  0.73097  Biso   1.000  H
  H313     1.0000 0.47757  0.18975  0.85515  Biso   1.000  H
  H314     1.0000 0.51935  0.14973  0.81289  Biso   1.000  H
  H315     1.0000 0.47568  0.35336  0.68844  Biso   1.000  H
  H316     1.0000 0.51906  0.31230  0.64995  Biso   1.000  H
  H317     1.0000 0.60048  0.23097  0.81251  Biso   1.000  H
  H318     1.0000 0.56236  0.27357  0.85305  Biso   1.000  H
  H319     1.0000 0.43950  0.23122  0.64884  Biso   1.000  H
  H320     1.0000 0.39633  0.27188  0.68852  Biso   1.000  H
  O449     1.0000 0.35088  0.75377  0.45035  Biso   1.000  O
  O450     1.0000 0.33675  0.68601  0.45472  Biso   1.000  O
  O451     1.0000 0.25281  0.80027  0.39818  Biso   1.000  O
  O452     1.0000 0.18856  0.79754  0.40858  Biso   1.000  O
  O453     1.0000 0.30000  0.85184  0.49602  Biso   1.000  O
  O454     1.0000 0.29400  0.83848  0.56395  Biso   1.000  O
  O455     1.0000 0.14920  0.70026  0.50406  Biso   1.000  O
  O456     1.0000 0.15957  0.70814  0.43727  Biso   1.000  O
  O457     1.0000 0.24496  0.65043  0.54962  Biso   1.000  O
  O458     1.0000 0.31481  0.66381  0.54541  Biso   1.000  O
  O459     1.0000 0.19935  0.74649  0.59979  Biso   1.000  O
  O460     1.0000 0.20340  0.81617  0.58637  Biso   1.000  O
  O461     1.0000 0.14920  0.74625  0.54962  Biso   1.000  O
  O462     1.0000 0.16298  0.81658  0.54460  Biso   1.000  O
  O463     1.0000 0.24494  0.70055  0.59974  Biso   1.000  O
  O464     1.0000 0.31519  0.70526  0.58604  Biso   1.000  O
  O465     1.0000 0.19895  0.65057  0.50408  Biso   1.000  O
  O466     1.0000 0.20473  0.66359  0.43427  Biso   1.000  O
  O467     1.0000 0.35117  0.79934  0.49654  Biso   1.000  O
  O468     1.0000 0.33696  0.79452  0.56457  Biso   1.000  O
  O469     1.0000 0.25419  0.85210  0.45010  Biso   1.000  O
  O470     1.0000 0.18514  0.83865  0.45833  Biso   1.000  O
  O471     1.0000 0.29866  0.75437  0.39813  Biso   1.000  O
  O472     1.0000 0.29323  0.68629  0.41173  Biso   1.000  O
  Zr85     1.0000 0.29543  0.72984  0.45331  Biso   1.000  Zr
  O473     1.0000 0.26167  0.69312  0.48726  Biso   1.000  O
  Zr86     1.0000 0.22883  0.79726  0.45351  Biso   1.000  Zr
  O474     1.0000 0.19184  0.76309  0.48707  Biso   1.000  O
  Zr87     1.0000 0.29586  0.79672  0.52055  Biso   1.000  Zr
  O475     1.0000 0.26177  0.76302  0.55726  Biso   1.000  O
  Zr88     1.0000 0.20354  0.70496  0.47838  Biso   1.000  Zr
  O476     1.0000 0.23721  0.73893  0.44094  Biso   1.000  O
  Zr89     1.0000 0.27059  0.70490  0.54535  Biso   1.000  Zr
  O477     1.0000 0.30806  0.73852  0.51149  Biso   1.000  O
  Zr90     1.0000 0.20366  0.77199  0.54526  Biso   1.000  Zr
  O478     1.0000 0.23779  0.80943  0.51172  Biso   1.000  O
  O479     1.0000 0.28616  0.78724  0.46313  Biso   1.000  O
  O480     1.0000 0.21274  0.71414  0.53621  Biso   1.000  O
  C277     1.0000 0.36707  0.78126  0.46872  Biso   1.000  C
  C278     1.0000 0.28058  0.78219  0.38217  Biso   1.000  C
  C279     1.0000 0.28223  0.86785  0.46803  Biso   1.000  C
  C280     1.0000 0.13340  0.71813  0.53201  Biso   1.000  C
  C281     1.0000 0.21684  0.63469  0.53196  Biso   1.000  C
  C282     1.0000 0.21703  0.71841  0.61557  Biso   1.000  C
  H321     1.0000 0.26785  0.66631  0.48124  Biso   1.000  H
  H322     1.0000 0.26782  0.76908  0.58409  Biso   1.000  H
  H323     1.0000 0.30262  0.80324  0.44684  Biso   1.000  H
  H324     1.0000 0.16493  0.76874  0.48093  Biso   1.000  H
  H325     1.0000 0.17064  0.72077  0.41458  Biso   1.000  H
  H326     1.0000 0.16516  0.78498  0.41807  Biso   1.000  H
  H327     1.0000 0.31093  0.72706  0.60340  Biso   1.000  H
  H328     1.0000 0.34978  0.76948  0.56228  Biso   1.000  H
  H329     1.0000 0.22661  0.64642  0.43876  Biso   1.000  H
  H330     1.0000 0.26815  0.68863  0.39901  Biso   1.000  H
  H331     1.0000 0.22648  0.81327  0.60229  Biso   1.000  H
  H332     1.0000 0.26898  0.85133  0.56162  Biso   1.000  H
  H333     1.0000 0.34922  0.68763  0.47999  Biso   1.000  H
  H334     1.0000 0.31132  0.64728  0.52285  Biso   1.000  H
  H335     1.0000 0.19000  0.85300  0.48214  Biso   1.000  H
  H336     1.0000 0.14584  0.81235  0.52261  Biso   1.000  H
  O481     1.0000 0.35108  0.25393  0.95090  Biso   1.000  O
  O482     1.0000 0.33756  0.18578  0.95609  Biso   1.000  O
  O483     1.0000 0.25312  0.29953  0.89910  Biso   1.000  O
  O484     1.0000 0.18871  0.29601  0.90936  Biso   1.000  O
  O485     1.0000 0.29958  0.35145  0.99691  Biso   1.000  O
  O486     1.0000 0.29401  0.33784  0.06497  Biso   1.000  O
  O487     1.0000 0.14976  0.19916  0.00541  Biso   1.000  O
  O488     1.0000 0.16005  0.20692  0.93845  Biso   1.000  O
  O489     1.0000 0.24547  0.14978  0.05099  Biso   1.000  O
  O490     1.0000 0.31559  0.16342  0.04625  Biso   1.000  O
  O491     1.0000 0.19992  0.24586  0.10083  Biso   1.000  O
  O492     1.0000 0.20370  0.31560  0.08707  Biso   1.000  O
  O493     1.0000 0.14972  0.24512  0.05090  Biso   1.000  O
  O494     1.0000 0.16297  0.31545  0.04557  Biso   1.000  O
  O495     1.0000 0.24573  0.20013  0.10090  Biso   1.000  O
  O496     1.0000 0.31570  0.20467  0.08714  Biso   1.000  O
  O497     1.0000 0.19958  0.14962  0.00542  Biso   1.000  O
  O498     1.0000 0.20530  0.16244  0.93559  Biso   1.000  O
  O499     1.0000 0.35115  0.29972  0.99688  Biso   1.000  O
  O500     1.0000 0.33750  0.29420  0.06507  Biso   1.000  O
  O501     1.0000 0.25384  0.35137  0.95091  Biso   1.000  O
  O502     1.0000 0.18496  0.33747  0.95904  Biso   1.000  O
  O503     1.0000 0.29907  0.25371  0.89913  Biso   1.000  O
  O504     1.0000 0.29396  0.18562  0.91286  Biso   1.000  O
  Zr91     1.0000 0.29590  0.22929  0.95433  Biso   1.000  Zr
  O505     1.0000 0.26226  0.19242  0.98833  Biso   1.000  O
  Zr92     1.0000 0.22890  0.29632  0.95437  Biso   1.000  Zr
  O506     1.0000 0.19211  0.26208  0.98808  Biso   1.000  O
  Zr93     1.0000 0.29604  0.29627  0.02139  Biso   1.000  Zr
  O507     1.0000 0.26216  0.26244  0.05817  Biso   1.000  O
  Zr94     1.0000 0.20405  0.20397  0.97955  Biso   1.000  Zr
  O508     1.0000 0.23759  0.23800  0.94198  Biso   1.000  O
  Zr95     1.0000 0.27117  0.20430  0.04640  Biso   1.000  Zr
  O509     1.0000 0.30851  0.23810  0.01249  Biso   1.000  O
  Zr96     1.0000 0.20399  0.27117  0.04622  Biso   1.000  Zr
  O510     1.0000 0.23789  0.30868  0.01255  Biso   1.000  O
  O511     1.0000 0.28624  0.28663  0.96405  Biso   1.000  O
  O512     1.0000 0.21329  0.21333  0.03732  Biso   1.000  O
  C283     1.0000 0.36702  0.28185  0.96888  Biso   1.000  C
  C284     1.0000 0.28104  0.28156  0.88318  Biso   1.000  C
  C285     1.0000 0.28174  0.36731  0.96890  Biso   1.000  C
  C286     1.0000 0.13389  0.21684  0.03350  Biso   1.000  C
  C287     1.0000 0.21731  0.13380  0.03350  Biso   1.000  C
  C288     1.0000 0.21775  0.21792  0.11669  Biso   1.000  C
  H337     1.0000 0.26852  0.16563  0.98237  Biso   1.000  H
  H338     1.0000 0.26821  0.26860  0.08498  Biso   1.000  H
  H339     1.0000 0.30248  0.30279  0.94772  Biso   1.000  H
  H340     1.0000 0.16515  0.26758  0.98198  Biso   1.000  H
  H341     1.0000 0.17110  0.21944  0.91569  Biso   1.000  H
  H342     1.0000 0.16527  0.28365  0.91899  Biso   1.000  H
  H343     1.0000 0.31198  0.22707  0.10383  Biso   1.000  H
  H344     1.0000 0.35055  0.26930  0.06253  Biso   1.000  H
  H345     1.0000 0.22730  0.14540  0.94008  Biso   1.000  H
  H346     1.0000 0.26880  0.18771  0.90024  Biso   1.000  H
  H347     1.0000 0.22658  0.31257  0.10326  Biso   1.000  H
  H348     1.0000 0.26901  0.35072  0.06257  Biso   1.000  H
  H349     1.0000 0.35019  0.18785  0.98125  Biso   1.000  H
  H350     1.0000 0.31175  0.14650  0.02403  Biso   1.000  H
  H351     1.0000 0.18959  0.35175  0.98294  Biso   1.000  H
  H352     1.0000 0.14583  0.31106  0.02362  Biso   1.000  H
  C289     1.0000 0.79826  0.34211  0.74124  Biso   1.000  C
  C290     1.0000 0.78242  0.32562  0.77447  Biso   1.000  C
  C291     1.0000 0.79848  0.29270  0.79157  Biso   1.000  C
  C292     1.0000 0.83050  0.27576  0.77369  Biso   1.000  C
  C293     1.0000 0.84698  0.29146  0.74043  Biso   1.000  C
  C294     1.0000 0.83028  0.32444  0.72442  Biso   1.000  C
  H353     1.0000 0.75846  0.33959  0.78803  Biso   1.000  H
  H354     1.0000 0.84384  0.25112  0.78668  Biso   1.000  H
  H355     1.0000 0.84334  0.33743  0.69965  Biso   1.000  H
  C295     1.0000 0.40600  0.79144  0.89777  Biso   1.000  C
  C296     1.0000 0.42326  0.82378  0.91440  Biso   1.000  C
  C297     1.0000 0.45646  0.84028  0.89873  Biso   1.000  C
  C298     1.0000 0.47299  0.82312  0.86626  Biso   1.000  C
  C299     1.0000 0.45648  0.79075  0.84894  Biso   1.000  C
  C300     1.0000 0.42326  0.77498  0.86536  Biso   1.000  C
  H356     1.0000 0.40963  0.83738  0.93854  Biso   1.000  H
  H357     1.0000 0.49769  0.83624  0.85320  Biso   1.000  H
  H358     1.0000 0.40961  0.75091  0.85166  Biso   1.000  H
  C301     1.0000 0.34923  0.44752  0.39741  Biso   1.000  C
  C302     1.0000 0.33129  0.46429  0.36539  Biso   1.000  C
  C303     1.0000 0.29813  0.44843  0.34892  Biso   1.000  C
  C304     1.0000 0.28231  0.41532  0.36559  Biso   1.000  C
  C305     1.0000 0.29921  0.39752  0.39767  Biso   1.000  C
  C306     1.0000 0.33230  0.41452  0.41357  Biso   1.000  C
  H359     1.0000 0.34413  0.48901  0.35206  Biso   1.000  H
  H360     1.0000 0.25756  0.40243  0.35237  Biso   1.000  H
  H361     1.0000 0.34602  0.40091  0.43766  Biso   1.000  H
  C307     1.0000 0.34677  0.94845  0.89745  Biso   1.000  C
  C308     1.0000 0.33005  0.96433  0.86443  Biso   1.000  C
  C309     1.0000 0.29796  0.94748  0.84665  Biso   1.000  C
  C310     1.0000 0.28202  0.91442  0.86359  Biso   1.000  C
  C311     1.0000 0.29819  0.89740  0.89652  Biso   1.000  C
  C312     1.0000 0.33030  0.91525  0.91328  Biso   1.000  C
  H362     1.0000 0.34324  0.98912  0.85158  Biso   1.000  H
  H363     1.0000 0.25789  0.90077  0.84996  Biso   1.000  H
  H364     1.0000 0.34369  0.90232  0.93793  Biso   1.000  H
  C313     1.0000 0.95598  0.90072  0.24062  Biso   1.000  C
  C314     1.0000 0.97188  0.91728  0.27372  Biso   1.000  C
  C315     1.0000 0.95506  0.94934  0.29138  Biso   1.000  C
  C316     1.0000 0.92203  0.96530  0.27475  Biso   1.000  C
  C317     1.0000 0.90537  0.94949  0.24166  Biso   1.000  C
  C318     1.0000 0.92294  0.91744  0.22474  Biso   1.000  C
  H365     1.0000 0.99651  0.90408  0.28684  Biso   1.000  H
  H366     1.0000 0.90823  0.98919  0.28862  Biso   1.000  H
  H367     1.0000 0.90980  0.90434  0.20007  Biso   1.000  H
  C319     1.0000 0.40670  0.44938  0.24027  Biso   1.000  C
  C320     1.0000 0.42301  0.46489  0.27367  Biso   1.000  C
  C321     1.0000 0.45516  0.44810  0.29137  Biso   1.000  C
  C322     1.0000 0.47167  0.41561  0.27389  Biso   1.000  C
  C323     1.0000 0.45594  0.39903  0.24053  Biso   1.000  C
  C324     1.0000 0.42376  0.41680  0.22385  Biso   1.000  C
  H368     1.0000 0.40936  0.48920  0.28695  Biso   1.000  H
  H369     1.0000 0.49582  0.40197  0.28747  Biso   1.000  H
  H370     1.0000 0.41066  0.40415  0.19891  Biso   1.000  H
  C325     1.0000 0.90563  0.79277  0.39771  Biso   1.000  C
  C326     1.0000 0.92223  0.82576  0.41379  Biso   1.000  C
  C327     1.0000 0.95538  0.84241  0.39809  Biso   1.000  C
  C328     1.0000 0.97239  0.82485  0.36609  Biso   1.000  C
  C329     1.0000 0.95653  0.79184  0.34932  Biso   1.000  C
  C330     1.0000 0.92340  0.77593  0.36577  Biso   1.000  C
  H371     1.0000 0.90827  0.83959  0.43759  Biso   1.000  H
  H372     1.0000 0.99709  0.83799  0.35304  Biso   1.000  H
  H373     1.0000 0.91029  0.75133  0.35251  Biso   1.000  H
  C331     1.0000 0.79938  0.39896  0.89606  Biso   1.000  C
  C332     1.0000 0.78312  0.41581  0.86333  Biso   1.000  C
  C333     1.0000 0.79932  0.44846  0.84627  Biso   1.000  C
  C334     1.0000 0.83209  0.46473  0.86312  Biso   1.000  C
  C335     1.0000 0.84902  0.44861  0.89590  Biso   1.000  C
  C336     1.0000 0.83208  0.41595  0.91222  Biso   1.000  C
  H374     1.0000 0.75866  0.40244  0.85006  Biso   1.000  H
  H375     1.0000 0.84545  0.48912  0.84970  Biso   1.000  H
  H376     1.0000 0.84539  0.40266  0.93671  Biso   1.000  H
  C337     1.0000 0.34584  0.29047  0.24076  Biso   1.000  C
  C338     1.0000 0.32844  0.32270  0.22408  Biso   1.000  C
  C339     1.0000 0.29618  0.34013  0.24062  Biso   1.000  C
  C340     1.0000 0.28068  0.32402  0.27420  Biso   1.000  C
  C341     1.0000 0.29736  0.29175  0.29192  Biso   1.000  C
  C342     1.0000 0.32967  0.27505  0.27431  Biso   1.000  C
  H377     1.0000 0.34129  0.33549  0.19909  Biso   1.000  H
  H378     1.0000 0.25658  0.33791  0.28762  Biso   1.000  H
  H379     1.0000 0.34356  0.25098  0.28778  Biso   1.000  H
  C343     1.0000 0.40401  0.94955  0.74050  Biso   1.000  C
  C344     1.0000 0.42162  0.91738  0.72355  Biso   1.000  C
  C345     1.0000 0.45524  0.90120  0.73876  Biso   1.000  C
  C346     1.0000 0.47201  0.91849  0.77101  Biso   1.000  C
  C347     1.0000 0.45546  0.95070  0.78857  Biso   1.000  C
  C348     1.0000 0.42182  0.96617  0.77267  Biso   1.000  C
  H380     1.0000 0.40807  0.90358  0.69948  Biso   1.000  H
  H381     1.0000 0.49703  0.90563  0.78371  Biso   1.000  H
  H382     1.0000 0.40841  0.99021  0.78666  Biso   1.000  H
  C349     1.0000 0.84738  0.79211  0.24083  Biso   1.000  C
  C350     1.0000 0.83068  0.82504  0.22476  Biso   1.000  C
  C351     1.0000 0.79854  0.84260  0.24143  Biso   1.000  C
  C352     1.0000 0.78257  0.82606  0.27452  Biso   1.000  C
  C353     1.0000 0.79860  0.79321  0.29167  Biso   1.000  C
  C354     1.0000 0.83075  0.77633  0.27398  Biso   1.000  C
  H383     1.0000 0.84384  0.83810  0.20007  Biso   1.000  H
  H384     1.0000 0.75850  0.83998  0.28795  Biso   1.000  H
  H385     1.0000 0.84409  0.75172  0.28704  Biso   1.000  H
  C355     1.0000 0.40358  0.29197  0.39771  Biso   1.000  C
  C356     1.0000 0.42143  0.27505  0.36568  Biso   1.000  C
  C357     1.0000 0.45473  0.29077  0.34931  Biso   1.000  C
  C358     1.0000 0.47075  0.32361  0.36609  Biso   1.000  C
  C359     1.0000 0.45385  0.34126  0.39801  Biso   1.000  C
  C360     1.0000 0.42068  0.32481  0.41385  Biso   1.000  C
  H386     1.0000 0.40839  0.25050  0.35223  Biso   1.000  H
  H387     1.0000 0.49555  0.33660  0.35308  Biso   1.000  H
  H388     1.0000 0.40710  0.33884  0.43777  Biso   1.000  H
  C361     1.0000 0.90510  0.44885  0.74052  Biso   1.000  C
  C362     1.0000 0.92263  0.41674  0.72365  Biso   1.000  C
  C363     1.0000 0.95565  0.39999  0.73953  Biso   1.000  C
  C364     1.0000 0.97161  0.41656  0.77261  Biso   1.000  C
  C365     1.0000 0.95486  0.44865  0.79026  Biso   1.000  C
  C366     1.0000 0.92181  0.46466  0.77362  Biso   1.000  C
  H389     1.0000 0.90946  0.40363  0.69900  Biso   1.000  H
  H390     1.0000 0.99622  0.40334  0.78572  Biso   1.000  H
  H391     1.0000 0.90805  0.48857  0.78747  Biso   1.000  H
  C367     1.0000 0.70575  0.70078  0.59813  Biso   1.000  C
  C368     1.0000 0.72232  0.66836  0.61534  Biso   1.000  C
  C369     1.0000 0.70581  0.65099  0.64767  Biso   1.000  C
  C370     1.0000 0.67247  0.66734  0.66336  Biso   1.000  C
  C371     1.0000 0.65517  0.69978  0.64689  Biso   1.000  C
  C372     1.0000 0.67244  0.71639  0.61454  Biso   1.000  C
  H392     1.0000 0.74712  0.65538  0.60231  Biso   1.000  H
  H393     1.0000 0.65884  0.65364  0.68744  Biso   1.000  H
  H394     1.0000 0.65883  0.74052  0.60093  Biso   1.000  H
  C373     1.0000 0.54855  0.19918  0.04068  Biso   1.000  C
  C374     1.0000 0.58068  0.21590  0.02305  Biso   1.000  C
  C375     1.0000 0.59725  0.19992  0.98996  Biso   1.000  C
  C376     1.0000 0.58047  0.16690  0.97411  Biso   1.000  C
  C377     1.0000 0.54836  0.14940  0.99101  Biso   1.000  C
  C378     1.0000 0.53253  0.16614  0.02405  Biso   1.000  C
  H395     1.0000 0.59392  0.24050  0.03618  Biso   1.000  H
  H396     1.0000 0.59357  0.15373  0.94946  Biso   1.000  H
  H397     1.0000 0.50859  0.15240  0.03787  Biso   1.000  H
  C379     1.0000 0.04845  0.59202  0.14765  Biso   1.000  C
  C380     1.0000 0.08144  0.57534  0.16361  Biso   1.000  C
  C381     1.0000 0.09810  0.54234  0.14770  Biso   1.000  C
  C382     1.0000 0.08055  0.52547  0.11565  Biso   1.000  C
  C383     1.0000 0.04755  0.54139  0.09895  Biso   1.000  C
  C384     1.0000 0.03162  0.57446  0.11557  Biso   1.000  C
  H398     1.0000 0.09526  0.58914  0.18752  Biso   1.000  H
  H399     1.0000 0.09372  0.50084  0.10249  Biso   1.000  H
  H400     1.0000 0.00704  0.58766  0.10236  Biso   1.000  H
  C385     1.0000 0.20762  0.04018  0.53905  Biso   1.000  C
  C386     1.0000 0.17501  0.02397  0.52189  Biso   1.000  C
  C387     1.0000 0.15809  0.04034  0.48922  Biso   1.000  C
  C388     1.0000 0.17517  0.07299  0.47301  Biso   1.000  C
  C389     1.0000 0.20780  0.08999  0.48937  Biso   1.000  C
  C390     1.0000 0.22394  0.07294  0.52214  Biso   1.000  C
  H401     1.0000 0.16147  0.99969  0.53530  Biso   1.000  H
  H402     1.0000 0.16174  0.08650  0.44871  Biso   1.000  H
  H403     1.0000 0.24815  0.08643  0.53573  Biso   1.000  H
  C391     1.0000 0.09681  0.19961  0.49074  Biso   1.000  C
  C392     1.0000 0.08048  0.21525  0.52409  Biso   1.000  C
  C393     1.0000 0.04820  0.19862  0.54176  Biso   1.000  C
  C394     1.0000 0.03160  0.16615  0.52433  Biso   1.000  C
  C395     1.0000 0.04736  0.14937  0.49111  Biso   1.000  C
  C396     1.0000 0.07967  0.16699  0.47443  Biso   1.000  C
  H404     1.0000 0.09417  0.23955  0.53734  Biso   1.000  H
  H405     1.0000 0.00734  0.15265  0.53787  Biso   1.000  H
  H406     1.0000 0.09278  0.15422  0.44956  Biso   1.000  H
  C397     1.0000 0.54635  0.54130  0.59838  Biso   1.000  C
  C398     1.0000 0.53066  0.57458  0.61476  Biso   1.000  C
  C399     1.0000 0.54719  0.59190  0.64713  Biso   1.000  C
  C400     1.0000 0.57962  0.57465  0.66369  Biso   1.000  C
  C401     1.0000 0.59606  0.54135  0.64807  Biso   1.000  C
  C402     1.0000 0.57878  0.52480  0.61568  Biso   1.000  C
  H407     1.0000 0.50654  0.58818  0.60110  Biso   1.000  H
  H408     1.0000 0.59326  0.58830  0.68779  Biso   1.000  H
  H409     1.0000 0.59181  0.50001  0.60268  Biso   1.000  H
  C403     1.0000 0.09651  0.04032  0.64879  Biso   1.000  C
  C404     1.0000 0.07951  0.02394  0.61612  Biso   1.000  C
  C405     1.0000 0.04716  0.04054  0.59852  Biso   1.000  C
  C406     1.0000 0.03120  0.07358  0.61537  Biso   1.000  C
  C407     1.0000 0.04763  0.09076  0.64786  Biso   1.000  C
  C408     1.0000 0.07996  0.07349  0.66448  Biso   1.000  C
  H410     1.0000 0.09278  0.99921  0.60325  Biso   1.000  H
  H411     1.0000 0.00701  0.08732  0.60198  Biso   1.000  H
  H412     1.0000 0.09346  0.08704  0.68871  Biso   1.000  H
  C409     1.0000 0.20603  0.69842  0.09858  Biso   1.000  C
  C410     1.0000 0.17306  0.71429  0.11538  Biso   1.000  C
  C411     1.0000 0.15547  0.69734  0.14738  Biso   1.000  C
  C412     1.0000 0.17207  0.66414  0.16311  Biso   1.000  C
  C413     1.0000 0.20502  0.64715  0.14698  Biso   1.000  C
  C414     1.0000 0.22184  0.66510  0.11493  Biso   1.000  C
  H413     1.0000 0.16002  0.73909  0.10242  Biso   1.000  H
  H414     1.0000 0.15816  0.65054  0.18709  Biso   1.000  H
  H415     1.0000 0.24647  0.65218  0.10152  Biso   1.000  H
  C415     1.0000 0.70644  0.09071  0.98885  Biso   1.000  C
  C416     1.0000 0.72286  0.07341  0.02130  Biso   1.000  C
  C417     1.0000 0.70616  0.04113  0.03865  Biso   1.000  C
  C418     1.0000 0.67279  0.02561  0.02225  Biso   1.000  C
  C419     1.0000 0.65560  0.04219  0.98979  Biso   1.000  C
  C420     1.0000 0.67306  0.07445  0.97321  Biso   1.000  C
  H416     1.0000 0.74770  0.08634  0.03430  Biso   1.000  H
  H417     1.0000 0.65904  0.00160  0.03595  Biso   1.000  H
  H418     1.0000 0.65952  0.08811  0.94906  Biso   1.000  H
  C421     1.0000 0.54825  0.04278  0.09726  Biso   1.000  C
  C422     1.0000 0.53227  0.07582  0.11387  Biso   1.000  C
  C423     1.0000 0.54817  0.09256  0.14686  Biso   1.000  C
  C424     1.0000 0.58027  0.07505  0.16373  Biso   1.000  C
  C425     1.0000 0.59698  0.04202  0.14787  Biso   1.000  C
  C426     1.0000 0.58035  0.02603  0.11485  Biso   1.000  C
  H419     1.0000 0.50834  0.08959  0.10006  Biso   1.000  H
  H420     1.0000 0.59343  0.08825  0.18835  Biso   1.000  H
  H421     1.0000 0.59355  0.00140  0.10172  Biso   1.000  H
  C427     1.0000 0.20536  0.20015  0.59963  Biso   1.000  C
  C428     1.0000 0.22190  0.16774  0.61694  Biso   1.000  C
  C429     1.0000 0.20530  0.15029  0.64925  Biso   1.000  C
  C430     1.0000 0.17173  0.16648  0.66470  Biso   1.000  C
  C431     1.0000 0.15412  0.19883  0.64806  Biso   1.000  C
  C432     1.0000 0.17183  0.21557  0.61583  Biso   1.000  C
  H422     1.0000 0.24685  0.15490  0.60408  Biso   1.000  H
  H423     1.0000 0.15827  0.15262  0.68879  Biso   1.000  H
  H424     1.0000 0.15846  0.23976  0.60204  Biso   1.000  H
  C433     1.0000 0.04805  0.69970  0.04022  Biso   1.000  C
  C434     1.0000 0.08040  0.71621  0.02284  Biso   1.000  C
  C435     1.0000 0.09675  0.70047  0.98954  Biso   1.000  C
  C436     1.0000 0.07946  0.66805  0.97312  Biso   1.000  C
  C437     1.0000 0.04713  0.65077  0.98975  Biso   1.000  C
  C438     1.0000 0.03151  0.66723  0.02304  Biso   1.000  C
  H425     1.0000 0.09407  0.74035  0.03639  Biso   1.000  H
  H426     1.0000 0.09245  0.65500  0.94834  Biso   1.000  H
  H427     1.0000 0.00745  0.65357  0.03674  Biso   1.000  H
  C439     1.0000 0.70649  0.54041  0.53740  Biso   1.000  C
  C440     1.0000 0.72274  0.57315  0.52042  Biso   1.000  C
  C441     1.0000 0.70648  0.59025  0.48775  Biso   1.000  C
  C442     1.0000 0.67375  0.57326  0.47147  Biso   1.000  C
  C443     1.0000 0.65675  0.54051  0.48766  Biso   1.000  C
  C444     1.0000 0.67379  0.52420  0.52034  Biso   1.000  C
  H428     1.0000 0.74704  0.58659  0.53390  Biso   1.000  H
  H429     1.0000 0.66025  0.58679  0.44723  Biso   1.000  H
  H430     1.0000 0.66034  0.49988  0.53379  Biso   1.000  H
  C445     1.0000 0.70611  0.20103  0.09888  Biso   1.000  C
  C446     1.0000 0.72270  0.16868  0.11622  Biso   1.000  C
  C447     1.0000 0.70624  0.15142  0.14868  Biso   1.000  C
  C448     1.0000 0.67292  0.16782  0.16434  Biso   1.000  C
  C449     1.0000 0.65555  0.20017  0.14778  Biso   1.000  C
  C450     1.0000 0.67278  0.21666  0.11529  Biso   1.000  C
  H431     1.0000 0.74749  0.15567  0.10321  Biso   1.000  H
  H432     1.0000 0.65936  0.15420  0.18850  Biso   1.000  H
  H433     1.0000 0.65910  0.24072  0.10160  Biso   1.000  H
  C451     1.0000 0.54639  0.65074  0.48861  Biso   1.000  C
  C452     1.0000 0.57881  0.66799  0.47199  Biso   1.000  C
  C453     1.0000 0.59614  0.70046  0.48841  Biso   1.000  C
  C454     1.0000 0.57980  0.71613  0.52177  Biso   1.000  C
  C455     1.0000 0.54744  0.69962  0.53917  Biso   1.000  C
  C456     1.0000 0.53084  0.66720  0.52194  Biso   1.000  C
  H434     1.0000 0.59177  0.65494  0.44720  Biso   1.000  H
  H435     1.0000 0.59346  0.74027  0.53532  Biso   1.000  H
  H436     1.0000 0.50674  0.65359  0.53563  Biso   1.000  H
  C457     1.0000 0.20704  0.59020  0.99060  Biso   1.000  C
  C458     1.0000 0.22254  0.57397  0.02412  Biso   1.000  C
  C459     1.0000 0.20587  0.54161  0.04176  Biso   1.000  C
  C460     1.0000 0.17353  0.52499  0.02412  Biso   1.000  C
  C461     1.0000 0.15733  0.54052  0.99059  Biso   1.000  C
  C462     1.0000 0.17473  0.57283  0.97403  Biso   1.000  C
  H437     1.0000 0.24667  0.58780  0.03753  Biso   1.000  H
  H438     1.0000 0.15968  0.50086  0.03751  Biso   1.000  H
  H439     1.0000 0.16188  0.58569  0.94909  Biso   1.000  H
  C463     1.0000 0.90381  0.29254  0.89674  Biso   1.000  C
  C464     1.0000 0.92174  0.27565  0.86473  Biso   1.000  C
  C465     1.0000 0.95505  0.29138  0.84836  Biso   1.000  C
  C466     1.0000 0.97101  0.32431  0.86513  Biso   1.000  C
  C467     1.0000 0.95411  0.34195  0.89713  Biso   1.000  C
  C468     1.0000 0.92087  0.32544  0.91288  Biso   1.000  C
  H440     1.0000 0.90877  0.25104  0.85133  Biso   1.000  H
  H441     1.0000 0.99582  0.33730  0.85214  Biso   1.000  H
  H442     1.0000 0.90727  0.33941  0.93682  Biso   1.000  H
  C469     1.0000 0.79982  0.89735  0.39636  Biso   1.000  C
  C470     1.0000 0.78359  0.91476  0.36372  Biso   1.000  C
  C471     1.0000 0.79971  0.94771  0.34706  Biso   1.000  C
  C472     1.0000 0.83236  0.96390  0.36418  Biso   1.000  C
  C473     1.0000 0.84931  0.94759  0.39687  Biso   1.000  C
  C474     1.0000 0.83248  0.91458  0.41280  Biso   1.000  C
  H443     1.0000 0.75911  0.90173  0.35014  Biso   1.000  H
  H444     1.0000 0.84557  0.98854  0.35108  Biso   1.000  H
  H445     1.0000 0.84591  0.90137  0.43727  Biso   1.000  H
  C475     1.0000 0.29792  0.84332  0.74213  Biso   1.000  C
  C476     1.0000 0.32995  0.82548  0.72528  Biso   1.000  C
  C477     1.0000 0.34652  0.79236  0.74110  Biso   1.000  C
  C478     1.0000 0.33000  0.77651  0.77426  Biso   1.000  C
  C479     1.0000 0.29794  0.79334  0.79213  Biso   1.000  C
  C480     1.0000 0.28188  0.82635  0.77516  Biso   1.000  C
  H446     1.0000 0.34318  0.83836  0.70052  Biso   1.000  H
  H447     1.0000 0.34331  0.75179  0.78711  Biso   1.000  H
  H448     1.0000 0.25779  0.84000  0.78883  Biso   1.000  H
  O513     1.0000 0.70210  0.49894  0.59174  Biso   1.000  O
  O514     1.0000 0.70669  0.43115  0.60579  Biso   1.000  O
  O515     1.0000 0.64997  0.54522  0.68995  Biso   1.000  O
  O516     1.0000 0.66026  0.54180  0.75423  Biso   1.000  O
  O517     1.0000 0.74791  0.59712  0.64360  Biso   1.000  O
  O518     1.0000 0.81596  0.58326  0.64864  Biso   1.000  O
  O519     1.0000 0.75645  0.44517  0.79318  Biso   1.000  O
  O520     1.0000 0.68915  0.45354  0.78312  Biso   1.000  O
  O521     1.0000 0.80162  0.39551  0.69839  Biso   1.000  O
  O522     1.0000 0.79693  0.40883  0.62783  Biso   1.000  O
  O523     1.0000 0.85156  0.49137  0.74362  Biso   1.000  O
  O524     1.0000 0.83800  0.56151  0.73858  Biso   1.000  O
  O525     1.0000 0.80198  0.49121  0.79312  Biso   1.000  O
  O526     1.0000 0.79659  0.56149  0.77976  Biso   1.000  O
  O527     1.0000 0.85155  0.44538  0.69807  Biso   1.000  O
  O528     1.0000 0.83818  0.44985  0.62781  Biso   1.000  O
  O529     1.0000 0.75590  0.39568  0.74423  Biso   1.000  O
  O530     1.0000 0.68635  0.40836  0.73816  Biso   1.000  O
  O531     1.0000 0.74806  0.54472  0.59153  Biso   1.000  O
  O532     1.0000 0.81589  0.53987  0.60533  Biso   1.000  O
  O533     1.0000 0.70198  0.59711  0.68941  Biso   1.000  O
  O534     1.0000 0.70982  0.58331  0.75790  Biso   1.000  O
  O535     1.0000 0.64992  0.49936  0.64404  Biso   1.000  O
  O536     1.0000 0.66362  0.43128  0.64926  Biso   1.000  O
  Zr97     1.0000 0.70515  0.47490  0.64719  Biso   1.000  Zr
  O537     1.0000 0.73910  0.43811  0.68100  Biso   1.000  O
  Zr98     1.0000 0.70526  0.54208  0.71403  Biso   1.000  Zr
  O538     1.0000 0.73900  0.50806  0.75093  Biso   1.000  O
  Zr99     1.0000 0.77226  0.54181  0.64684  Biso   1.000  Zr
  O539     1.0000 0.80909  0.50801  0.68080  Biso   1.000  O
  Zr100    1.0000 0.73024  0.44997  0.73914  Biso   1.000  Zr
  O540     1.0000 0.69274  0.48381  0.70544  Biso   1.000  O
  Zr101    1.0000 0.79722  0.44983  0.67214  Biso   1.000  Zr
  O541     1.0000 0.76336  0.48357  0.63467  Biso   1.000  O
  Zr102    1.0000 0.79715  0.51707  0.73889  Biso   1.000  Zr
  O542     1.0000 0.76342  0.55440  0.70493  Biso   1.000  O
  O543     1.0000 0.71486  0.53232  0.65660  Biso   1.000  O
  O544     1.0000 0.78801  0.45925  0.72985  Biso   1.000  O
  C481     1.0000 0.72034  0.52655  0.57555  Biso   1.000  C
  C482     1.0000 0.63394  0.52714  0.66218  Biso   1.000  C
  C483     1.0000 0.72010  0.61312  0.66170  Biso   1.000  C
  C484     1.0000 0.78463  0.46288  0.80876  Biso   1.000  C
  C485     1.0000 0.78402  0.37989  0.72667  Biso   1.000  C
  C486     1.0000 0.86727  0.46312  0.72616  Biso   1.000  C
  H449     1.0000 0.73311  0.41130  0.67487  Biso   1.000  H
  H450     1.0000 0.83592  0.51406  0.67473  Biso   1.000  H
  H451     1.0000 0.69861  0.54847  0.64024  Biso   1.000  H
  H452     1.0000 0.73294  0.51368  0.77786  Biso   1.000  H
  H453     1.0000 0.66619  0.46544  0.77179  Biso   1.000  H
  H454     1.0000 0.66993  0.52961  0.77775  Biso   1.000  H
  H455     1.0000 0.85520  0.47198  0.63176  Biso   1.000  H
  H456     1.0000 0.81410  0.51451  0.59307  Biso   1.000  H
  H457     1.0000 0.69062  0.39145  0.71602  Biso   1.000  H
  H458     1.0000 0.65102  0.43344  0.67442  Biso   1.000  H
  H459     1.0000 0.85501  0.55748  0.71647  Biso   1.000  H
  H460     1.0000 0.81386  0.59599  0.67374  Biso   1.000  H
  H461     1.0000 0.73209  0.43265  0.59356  Biso   1.000  H
  H462     1.0000 0.77514  0.39148  0.63220  Biso   1.000  H
  H463     1.0000 0.73396  0.59727  0.75357  Biso   1.000  H
  H464     1.0000 0.77479  0.55707  0.79708  Biso   1.000  H
  O545     1.0000 0.15016  0.04412  0.69108  Biso   1.000  O
  O546     1.0000 0.16376  0.03918  0.75918  Biso   1.000  O
  O547     1.0000 0.24790  0.09666  0.64561  Biso   1.000  O
  O548     1.0000 0.31256  0.08666  0.65009  Biso   1.000  O
  O549     1.0000 0.20305  0.99842  0.59312  Biso   1.000  O
  O550     1.0000 0.20789  0.93043  0.60711  Biso   1.000  O
  O551     1.0000 0.35170  0.99047  0.74559  Biso   1.000  O
  O552     1.0000 0.34095  0.05742  0.73849  Biso   1.000  O
  O553     1.0000 0.25598  0.94413  0.79501  Biso   1.000  O
  O554     1.0000 0.18541  0.94965  0.78113  Biso   1.000  O
  O555     1.0000 0.30199  0.89500  0.70018  Biso   1.000  O
  O556     1.0000 0.29688  0.90889  0.62914  Biso   1.000  O
  O557     1.0000 0.35192  0.94513  0.69947  Biso   1.000  O
  O558     1.0000 0.33901  0.94903  0.63019  Biso   1.000  O
  O559     1.0000 0.25593  0.89481  0.74554  Biso   1.000  O
  O560     1.0000 0.18586  0.90810  0.74005  Biso   1.000  O
  O561     1.0000 0.30193  0.98963  0.79526  Biso   1.000  O
  O562     1.0000 0.29581  0.05958  0.78313  Biso   1.000  O
  O563     1.0000 0.15044  0.99844  0.64501  Biso   1.000  O
  O564     1.0000 0.16409  0.93061  0.65000  Biso   1.000  O
  O565     1.0000 0.24858  0.04461  0.59357  Biso   1.000  O
  O566     1.0000 0.31677  0.03750  0.60798  Biso   1.000  O
  O567     1.0000 0.20183  0.09637  0.69129  Biso   1.000  O
  O568     1.0000 0.20706  0.08265  0.75925  Biso   1.000  O
  Zr103    1.0000 0.20535  0.04112  0.71562  Biso   1.000  Zr
  O569     1.0000 0.23898  0.00714  0.75258  Biso   1.000  O
  Zr104    1.0000 0.27258  0.04148  0.64893  Biso   1.000  Zr
  O570     1.0000 0.30925  0.00754  0.68307  Biso   1.000  O
  Zr105    1.0000 0.20569  0.97417  0.64849  Biso   1.000  Zr
  O571     1.0000 0.23935  0.93728  0.68251  Biso   1.000  O
  Zr106    1.0000 0.29721  0.01602  0.74117  Biso   1.000  Zr
  O572     1.0000 0.26366  0.05365  0.70722  Biso   1.000  O
  Zr107    1.0000 0.23017  0.94909  0.74062  Biso   1.000  Zr
  O573     1.0000 0.19297  0.98294  0.70663  Biso   1.000  O
  Zr108    1.0000 0.29747  0.94933  0.67396  Biso   1.000  Zr
  O574     1.0000 0.26385  0.98326  0.63645  Biso   1.000  O
  O575     1.0000 0.21518  0.03158  0.65822  Biso   1.000  O
  O576     1.0000 0.28803  0.95827  0.73172  Biso   1.000  O
  C487     1.0000 0.13431  0.02611  0.66314  Biso   1.000  C
  C488     1.0000 0.21988  0.11250  0.66355  Biso   1.000  C
  C489     1.0000 0.22120  0.02625  0.57724  Biso   1.000  C
  C490     1.0000 0.36773  0.96262  0.72766  Biso   1.000  C
  C491     1.0000 0.28433  0.96137  0.81090  Biso   1.000  C
  C492     1.0000 0.28435  0.87912  0.72832  Biso   1.000  C
  H465     1.0000 0.23266  0.01303  0.77937  Biso   1.000  H
  H466     1.0000 0.23339  0.91045  0.67637  Biso   1.000  H
  H467     1.0000 0.19896  0.04778  0.64187  Biso   1.000  H
  H468     1.0000 0.33619  0.01370  0.67758  Biso   1.000  H
  H469     1.0000 0.32970  0.08030  0.72636  Biso   1.000  H
  H470     1.0000 0.33608  0.07689  0.66221  Biso   1.000  H
  H471     1.0000 0.19005  0.89110  0.71796  Biso   1.000  H
  H472     1.0000 0.15159  0.93239  0.67524  Biso   1.000  H
  H473     1.0000 0.27389  0.05483  0.80019  Biso   1.000  H
  H474     1.0000 0.23237  0.09501  0.75751  Biso   1.000  H
  H475     1.0000 0.27612  0.89052  0.63427  Biso   1.000  H
  H476     1.0000 0.23316  0.93244  0.59471  Biso   1.000  H
  H477     1.0000 0.15129  0.01394  0.75718  Biso   1.000  H
  H478     1.0000 0.19019  0.97083  0.79911  Biso   1.000  H
  H479     1.0000 0.31296  0.01319  0.59417  Biso   1.000  H
  H480     1.0000 0.35456  0.97239  0.63296  Biso   1.000  H
  O577     1.0000 0.40000  0.99146  0.89428  Biso   1.000  O
  O578     1.0000 0.41326  0.05978  0.89993  Biso   1.000  O
  O579     1.0000 0.49784  0.94661  0.84217  Biso   1.000  O
  O580     1.0000 0.56226  0.95009  0.85221  Biso   1.000  O
  O581     1.0000 0.45250  0.89405  0.94068  Biso   1.000  O
  O582     1.0000 0.45738  0.90814  0.00855  Biso   1.000  O
  O583     1.0000 0.60150  0.04640  0.94807  Biso   1.000  O
  O584     1.0000 0.59069  0.03882  0.88104  Biso   1.000  O
  O585     1.0000 0.50586  0.09583  0.99417  Biso   1.000  O
  O586     1.0000 0.43538  0.08197  0.98923  Biso   1.000  O
  O587     1.0000 0.55195  0.00053  0.04360  Biso   1.000  O
  O588     1.0000 0.54722  0.93006  0.02999  Biso   1.000  O
  O589     1.0000 0.60176  0.00027  0.99350  Biso   1.000  O
  O590     1.0000 0.58850  0.93048  0.98900  Biso   1.000  O
  O591     1.0000 0.50577  0.04589  0.04391  Biso   1.000  O
  O592     1.0000 0.43595  0.04121  0.03077  Biso   1.000  O
  O593     1.0000 0.55186  0.09593  0.94861  Biso   1.000  O
  O594     1.0000 0.54564  0.08362  0.87884  Biso   1.000  O
  O595     1.0000 0.40022  0.94551  0.94008  Biso   1.000  O
  O596     1.0000 0.41370  0.95138  0.00821  Biso   1.000  O
  O597     1.0000 0.49791  0.89438  0.89436  Biso   1.000  O
  O598     1.0000 0.56636  0.90857  0.90152  Biso   1.000  O
  O599     1.0000 0.45192  0.99244  0.84245  Biso   1.000  O
  O600     1.0000 0.45649  0.06025  0.85642  Biso   1.000  O
  Zr109    1.0000 0.45505  0.01642  0.89774  Biso   1.000  Zr
  O601     1.0000 0.48884  0.05332  0.93154  Biso   1.000  O
  Zr110    1.0000 0.52227  0.94960  0.89738  Biso   1.000  Zr
  O602     1.0000 0.55909  0.98373  0.93108  Biso   1.000  O
  Zr111    1.0000 0.45532  0.94939  0.96468  Biso   1.000  Zr
  O603     1.0000 0.48922  0.98329  0.00141  Biso   1.000  O
  Zr112    1.0000 0.54704  0.04180  0.92252  Biso   1.000  Zr
  O604     1.0000 0.51333  0.00787  0.88509  Biso   1.000  O
  Zr113    1.0000 0.48009  0.04140  0.98960  Biso   1.000  Zr
  O605     1.0000 0.44266  0.00751  0.95590  Biso   1.000  O
  Zr114    1.0000 0.54734  0.97462  0.98926  Biso   1.000  Zr
  O606     1.0000 0.51347  0.93715  0.95558  Biso   1.000  O
  O607     1.0000 0.46491  0.95904  0.90727  Biso   1.000  O
  O608     1.0000 0.53793  0.03241  0.98031  Biso   1.000  O
  C493     1.0000 0.38421  0.96338  0.91216  Biso   1.000  C
  C494     1.0000 0.46997  0.96474  0.82633  Biso   1.000  C
  C495     1.0000 0.47047  0.87819  0.91276  Biso   1.000  C
  C496     1.0000 0.61744  0.02845  0.97591  Biso   1.000  C
  C497     1.0000 0.53410  0.11159  0.97669  Biso   1.000  C
  C498     1.0000 0.53410  0.02847  0.05946  Biso   1.000  C
  H481     1.0000 0.48254  0.08010  0.92561  Biso   1.000  H
  H482     1.0000 0.48328  0.97716  0.02824  Biso   1.000  H
  H483     1.0000 0.44879  0.94271  0.89096  Biso   1.000  H
  H484     1.0000 0.58602  0.97820  0.92487  Biso   1.000  H
  H485     1.0000 0.57933  0.02672  0.85820  Biso   1.000  H
  H486     1.0000 0.58567  0.96261  0.86173  Biso   1.000  H
  H487     1.0000 0.43938  0.01843  0.04703  Biso   1.000  H
  H488     1.0000 0.40073  0.97632  0.00575  Biso   1.000  H
  H489     1.0000 0.52372  0.10070  0.88355  Biso   1.000  H
  H490     1.0000 0.48181  0.05870  0.84405  Biso   1.000  H
  H491     1.0000 0.52563  0.93443  0.04758  Biso   1.000  H
  H492     1.0000 0.48263  0.89568  0.00660  Biso   1.000  H
  H493     1.0000 0.40052  0.05735  0.92499  Biso   1.000  H
  H494     1.0000 0.43970  0.09948  0.96757  Biso   1.000  H
  H495     1.0000 0.56232  0.89460  0.92571  Biso   1.000  H
  H496     1.0000 0.60486  0.93408  0.96633  Biso   1.000  H
  O609     1.0000 0.55050  0.49933  0.54458  Biso   1.000  O
  O610     1.0000 0.54589  0.43145  0.53126  Biso   1.000  O
  O611     1.0000 0.60248  0.54466  0.44606  Biso   1.000  O
  O612     1.0000 0.59183  0.54128  0.38177  Biso   1.000  O
  O613     1.0000 0.50427  0.59695  0.49245  Biso   1.000  O
  O614     1.0000 0.43652  0.58325  0.48730  Biso   1.000  O
  O615     1.0000 0.49638  0.44383  0.34353  Biso   1.000  O
  O616     1.0000 0.56307  0.45163  0.35377  Biso   1.000  O
  O617     1.0000 0.45084  0.39492  0.44014  Biso   1.000  O
  O618     1.0000 0.45532  0.40909  0.50984  Biso   1.000  O
  O619     1.0000 0.40074  0.48968  0.39321  Biso   1.000  O
  O620     1.0000 0.41413  0.56026  0.39734  Biso   1.000  O
  O621     1.0000 0.45088  0.48978  0.34314  Biso   1.000  O
  O622     1.0000 0.45499  0.55981  0.35604  Biso   1.000  O
  O623     1.0000 0.40097  0.44421  0.43917  Biso   1.000  O
  O624     1.0000 0.41448  0.45075  0.50966  Biso   1.000  O
  O625     1.0000 0.49598  0.39482  0.39372  Biso   1.000  O
  O626     1.0000 0.56612  0.40766  0.39955  Biso   1.000  O
  O627     1.0000 0.50440  0.54499  0.54454  Biso   1.000  O
  O628     1.0000 0.43628  0.53980  0.53068  Biso   1.000  O
  O629     1.0000 0.55027  0.59676  0.44672  Biso   1.000  O
  O630     1.0000 0.54228  0.58253  0.37810  Biso   1.000  O
  O631     1.0000 0.60257  0.49907  0.49222  Biso   1.000  O
  O632     1.0000 0.58872  0.43108  0.48762  Biso   1.000  O
  Zr115    1.0000 0.54729  0.47480  0.48943  Biso   1.000  Zr
  O633     1.0000 0.51327  0.43774  0.45612  Biso   1.000  O
  Zr116    1.0000 0.54702  0.54154  0.42217  Biso   1.000  Zr
  O634     1.0000 0.51328  0.50704  0.38562  Biso   1.000  O
  Zr117    1.0000 0.48006  0.54165  0.48932  Biso   1.000  Zr
  O635     1.0000 0.44318  0.50759  0.45567  Biso   1.000  O
  Zr118    1.0000 0.52203  0.44904  0.39786  Biso   1.000  Zr
  O636     1.0000 0.55957  0.48331  0.43111  Biso   1.000  O
  Zr119    1.0000 0.45518  0.44960  0.46509  Biso   1.000  Zr
  O637     1.0000 0.48915  0.48360  0.50212  Biso   1.000  O
  Zr120    1.0000 0.45507  0.51590  0.39744  Biso   1.000  Zr
  O638     1.0000 0.48877  0.55368  0.43108  Biso   1.000  O
  O639     1.0000 0.53750  0.53215  0.47962  Biso   1.000  O
  O640     1.0000 0.46425  0.45825  0.40714  Biso   1.000  O
  C499     1.0000 0.53226  0.52703  0.56055  Biso   1.000  C
  C500     1.0000 0.61860  0.52663  0.47384  Biso   1.000  C
  C501     1.0000 0.53213  0.61287  0.47441  Biso   1.000  C
  C502     1.0000 0.46838  0.46146  0.32747  Biso   1.000  C
  C503     1.0000 0.46817  0.37912  0.41188  Biso   1.000  C
  C504     1.0000 0.38507  0.46142  0.41085  Biso   1.000  C
  H497     1.0000 0.51929  0.41100  0.46253  Biso   1.000  H
  H498     1.0000 0.41635  0.51366  0.46167  Biso   1.000  H
  H499     1.0000 0.55385  0.54839  0.49580  Biso   1.000  H
  H500     1.0000 0.51935  0.51243  0.35864  Biso   1.000  H
  H501     1.0000 0.58580  0.46436  0.36465  Biso   1.000  H
  H502     1.0000 0.58225  0.52850  0.35854  Biso   1.000  H
  H503     1.0000 0.39647  0.47182  0.50449  Biso   1.000  H
  H504     1.0000 0.43852  0.51480  0.54359  Biso   1.000  H
  H505     1.0000 0.56110  0.39015  0.42106  Biso   1.000  H
  H506     1.0000 0.60126  0.43298  0.46241  Biso   1.000  H
  H507     1.0000 0.39685  0.55616  0.41924  Biso   1.000  H
  H508     1.0000 0.43820  0.59531  0.46184  Biso   1.000  H
  H509     1.0000 0.52070  0.43332  0.54385  Biso   1.000  H
  H510     1.0000 0.47783  0.39247  0.50640  Biso   1.000  H
  H511     1.0000 0.51818  0.59655  0.38249  Biso   1.000  H
  H512     1.0000 0.47772  0.55631  0.33973  Biso   1.000  H
  O641     1.0000 0.15058  0.19598  0.44840  Biso   1.000  O
  O642     1.0000 0.16383  0.20113  0.38055  Biso   1.000  O
  O643     1.0000 0.24913  0.14433  0.49380  Biso   1.000  O
  O644     1.0000 0.31313  0.15501  0.49118  Biso   1.000  O
  O645     1.0000 0.20205  0.24250  0.54591  Biso   1.000  O
  O646     1.0000 0.20732  0.31036  0.53215  Biso   1.000  O
  O647     1.0000 0.35181  0.25040  0.39353  Biso   1.000  O
  O648     1.0000 0.34146  0.18361  0.40130  Biso   1.000  O
  O649     1.0000 0.25598  0.29605  0.34401  Biso   1.000  O
  O650     1.0000 0.18661  0.29254  0.35742  Biso   1.000  O
  O651     1.0000 0.30275  0.34591  0.43968  Biso   1.000  O
  O652     1.0000 0.29812  0.33292  0.50950  Biso   1.000  O
  O653     1.0000 0.35196  0.29596  0.43944  Biso   1.000  O
  O654     1.0000 0.33834  0.29058  0.51016  Biso   1.000  O
  O655     1.0000 0.25699  0.34606  0.39401  Biso   1.000  O
  O656     1.0000 0.18590  0.33237  0.39989  Biso   1.000  O
  O657     1.0000 0.30204  0.25065  0.34409  Biso   1.000  O
  O658     1.0000 0.29597  0.18068  0.35703  Biso   1.000  O
  O659     1.0000 0.15036  0.24217  0.49395  Biso   1.000  O
  O660     1.0000 0.16409  0.31045  0.48832  Biso   1.000  O
  O661     1.0000 0.24773  0.19646  0.54594  Biso   1.000  O
  O662     1.0000 0.31673  0.20482  0.53196  Biso   1.000  O
  O663     1.0000 0.20320  0.14424  0.44798  Biso   1.000  O
  O664     1.0000 0.20776  0.15845  0.37983  Biso   1.000  O
  Zr121    1.0000 0.20577  0.19961  0.42379  Biso   1.000  Zr
  O665     1.0000 0.23932  0.23368  0.38690  Biso   1.000  O
  Zr122    1.0000 0.27275  0.19983  0.49089  Biso   1.000  Zr
  O666     1.0000 0.30953  0.23341  0.45651  Biso   1.000  O
  Zr123    1.0000 0.20553  0.26676  0.49060  Biso   1.000  Zr
  O667     1.0000 0.23957  0.30361  0.45682  Biso   1.000  O
  Zr124    1.0000 0.29750  0.22475  0.39843  Biso   1.000  Zr
  O668     1.0000 0.26405  0.18730  0.43259  Biso   1.000  O
  Zr125    1.0000 0.23063  0.29184  0.39870  Biso   1.000  Zr
  O669     1.0000 0.19322  0.25782  0.43241  Biso   1.000  O
  Zr126    1.0000 0.29771  0.29157  0.46553  Biso   1.000  Zr
  O670     1.0000 0.26369  0.25803  0.50307  Biso   1.000  O
  O671     1.0000 0.21535  0.20934  0.48116  Biso   1.000  O
  O672     1.0000 0.28841  0.28255  0.40774  Biso   1.000  O
  C505     1.0000 0.13450  0.21410  0.47615  Biso   1.000  C
  C506     1.0000 0.22151  0.12819  0.47560  Biso   1.000  C
  C507     1.0000 0.21992  0.21457  0.56190  Biso   1.000  C
  C508     1.0000 0.36768  0.27851  0.41114  Biso   1.000  C
  C509     1.0000 0.28422  0.27859  0.32814  Biso   1.000  C
  C510     1.0000 0.28537  0.36175  0.41140  Biso   1.000  C
  H513     1.0000 0.23304  0.22771  0.36012  Biso   1.000  H
  H514     1.0000 0.23361  0.33046  0.46290  Biso   1.000  H
  H515     1.0000 0.19918  0.19291  0.49731  Biso   1.000  H
  H516     1.0000 0.33648  0.22729  0.46201  Biso   1.000  H
  H517     1.0000 0.33044  0.16091  0.41397  Biso   1.000  H
  H518     1.0000 0.33630  0.16438  0.47813  Biso   1.000  H
  H519     1.0000 0.19133  0.35074  0.42058  Biso   1.000  H
  H520     1.0000 0.15123  0.30798  0.46332  Biso   1.000  H
  H521     1.0000 0.27440  0.18561  0.33956  Biso   1.000  H
  H522     1.0000 0.23284  0.14568  0.38196  Biso   1.000  H
  H523     1.0000 0.27542  0.34930  0.50618  Biso   1.000  H
  H524     1.0000 0.23264  0.30857  0.54449  Biso   1.000  H
  H525     1.0000 0.15139  0.22639  0.38240  Biso   1.000  H
  H526     1.0000 0.18885  0.26901  0.34206  Biso   1.000  H
  H527     1.0000 0.31178  0.22852  0.54648  Biso   1.000  H
  H528     1.0000 0.35608  0.26922  0.50527  Biso   1.000  H
  O673     1.0000 0.70190  0.74265  0.54425  Biso   1.000  O
  O674     1.0000 0.70663  0.81048  0.53051  Biso   1.000  O
  O675     1.0000 0.64998  0.69662  0.44621  Biso   1.000  O
  O676     1.0000 0.66034  0.70042  0.38177  Biso   1.000  O
  O677     1.0000 0.74806  0.64443  0.49222  Biso   1.000  O
  O678     1.0000 0.81584  0.65826  0.48752  Biso   1.000  O
  O679     1.0000 0.75672  0.79722  0.34323  Biso   1.000  O
  O680     1.0000 0.68984  0.78971  0.35315  Biso   1.000  O
  O681     1.0000 0.80272  0.84596  0.43864  Biso   1.000  O
  O682     1.0000 0.79656  0.83253  0.50926  Biso   1.000  O
  O683     1.0000 0.85183  0.75075  0.39342  Biso   1.000  O
  O684     1.0000 0.83795  0.68038  0.39753  Biso   1.000  O
  O685     1.0000 0.80218  0.75121  0.34319  Biso   1.000  O
  O686     1.0000 0.79721  0.68113  0.35597  Biso   1.000  O
  O687     1.0000 0.85191  0.79607  0.43965  Biso   1.000  O
  O688     1.0000 0.83789  0.79132  0.50944  Biso   1.000  O
  O689     1.0000 0.75736  0.84622  0.39256  Biso   1.000  O
  O690     1.0000 0.68677  0.83379  0.39910  Biso   1.000  O
  O691     1.0000 0.74769  0.69668  0.54438  Biso   1.000  O
  O692     1.0000 0.81576  0.70156  0.53085  Biso   1.000  O
  O693     1.0000 0.70220  0.64458  0.44635  Biso   1.000  O
  O694     1.0000 0.70981  0.65897  0.37781  Biso   1.000  O
  O695     1.0000 0.64996  0.74247  0.49212  Biso   1.000  O
  O696     1.0000 0.66368  0.81050  0.48682  Biso   1.000  O
  Zr127    1.0000 0.70518  0.76686  0.48898  Biso   1.000  Zr
  O697     1.0000 0.73935  0.80380  0.45558  Biso   1.000  O
  Zr128    1.0000 0.70531  0.69988  0.42198  Biso   1.000  Zr
  O698     1.0000 0.73922  0.73415  0.38537  Biso   1.000  O
  Zr129    1.0000 0.77220  0.69978  0.48925  Biso   1.000  Zr
  O699     1.0000 0.80915  0.73364  0.45560  Biso   1.000  O
  Zr130    1.0000 0.73072  0.79226  0.39737  Biso   1.000  Zr
  O700     1.0000 0.69299  0.75820  0.43066  Biso   1.000  O
  Zr131    1.0000 0.79734  0.79175  0.46474  Biso   1.000  Zr
  O701     1.0000 0.76327  0.75791  0.50181  Biso   1.000  O
  Zr132    1.0000 0.79734  0.72504  0.39739  Biso   1.000  Zr
  O702     1.0000 0.76348  0.68752  0.43106  Biso   1.000  O
  O703     1.0000 0.71483  0.70941  0.47941  Biso   1.000  O
  O704     1.0000 0.78839  0.78277  0.40686  Biso   1.000  O
  C511     1.0000 0.71995  0.71488  0.56030  Biso   1.000  C
  C512     1.0000 0.63397  0.71467  0.47404  Biso   1.000  C
  C513     1.0000 0.72038  0.62841  0.47398  Biso   1.000  C
  C514     1.0000 0.78490  0.77962  0.32746  Biso   1.000  C
  C515     1.0000 0.78567  0.86178  0.41015  Biso   1.000  C
  C516     1.0000 0.86765  0.77860  0.41146  Biso   1.000  C
  H529     1.0000 0.73343  0.83061  0.46181  Biso   1.000  H
  H530     1.0000 0.83594  0.72746  0.46172  Biso   1.000  H
  H531     1.0000 0.69856  0.69313  0.49562  Biso   1.000  H
  H532     1.0000 0.73319  0.72872  0.35838  Biso   1.000  H
  H533     1.0000 0.66695  0.77728  0.36404  Biso   1.000  H
  H534     1.0000 0.66994  0.71310  0.35849  Biso   1.000  H
  H535     1.0000 0.85460  0.76892  0.50574  Biso   1.000  H
  H536     1.0000 0.81346  0.72655  0.54376  Biso   1.000  H
  H537     1.0000 0.69255  0.85208  0.41976  Biso   1.000  H
  H538     1.0000 0.65131  0.80852  0.46154  Biso   1.000  H
  H539     1.0000 0.85511  0.68436  0.41954  Biso   1.000  H
  H540     1.0000 0.81407  0.64588  0.46222  Biso   1.000  H
  H541     1.0000 0.73198  0.80892  0.54282  Biso   1.000  H
  H542     1.0000 0.77557  0.85065  0.50414  Biso   1.000  H
  H543     1.0000 0.73400  0.64505  0.38197  Biso   1.000  H
  H544     1.0000 0.77485  0.68509  0.33925  Biso   1.000  H
  O705     1.0000 0.20264  0.74137  0.04532  Biso   1.000  O
  O706     1.0000 0.20805  0.80963  0.03193  Biso   1.000  O
  O707     1.0000 0.15054  0.69626  0.94748  Biso   1.000  O
  O708     1.0000 0.16067  0.69857  0.88323  Biso   1.000  O
  O709     1.0000 0.24917  0.64406  0.99376  Biso   1.000  O
  O710     1.0000 0.31699  0.65814  0.98788  Biso   1.000  O
  O711     1.0000 0.25610  0.79686  0.84385  Biso   1.000  O
  O712     1.0000 0.18917  0.78828  0.85432  Biso   1.000  O
  O713     1.0000 0.30214  0.84581  0.93862  Biso   1.000  O
  O714     1.0000 0.29700  0.83213  0.00954  Biso   1.000  O
  O715     1.0000 0.35195  0.74985  0.89358  Biso   1.000  O
  O716     1.0000 0.33860  0.68056  0.89675  Biso   1.000  O
  O717     1.0000 0.30182  0.75112  0.84358  Biso   1.000  O
  O718     1.0000 0.29614  0.68015  0.85689  Biso   1.000  O
  O719     1.0000 0.35213  0.79553  0.93946  Biso   1.000  O
  O720     1.0000 0.33905  0.79197  0.00880  Biso   1.000  O
  O721     1.0000 0.25636  0.84574  0.89296  Biso   1.000  O
  O722     1.0000 0.18618  0.83273  0.90009  Biso   1.000  O
  O723     1.0000 0.24871  0.69568  0.04521  Biso   1.000  O
  O724     1.0000 0.31694  0.70191  0.03137  Biso   1.000  O
  O725     1.0000 0.20290  0.64396  0.94830  Biso   1.000  O
  O726     1.0000 0.21042  0.65797  0.87924  Biso   1.000  O
  O727     1.0000 0.15070  0.74215  0.99336  Biso   1.000  O
  O728     1.0000 0.16454  0.80995  0.98872  Biso   1.000  O
  Zr133    1.0000 0.20596  0.76622  0.99019  Biso   1.000  Zr
  O729     1.0000 0.23955  0.80323  0.95627  Biso   1.000  O
  Zr134    1.0000 0.20583  0.69906  0.92324  Biso   1.000  Zr
  O730     1.0000 0.23912  0.73346  0.88616  Biso   1.000  O
  Zr135    1.0000 0.27314  0.69941  0.99005  Biso   1.000  Zr
  O731     1.0000 0.30954  0.73335  0.95588  Biso   1.000  O
  Zr136    1.0000 0.23043  0.79153  0.89815  Biso   1.000  Zr
  O732     1.0000 0.19329  0.75735  0.93196  Biso   1.000  O
  Zr137    1.0000 0.29766  0.79149  0.96489  Biso   1.000  Zr
  O733     1.0000 0.26419  0.75756  0.00251  Biso   1.000  O
  Zr138    1.0000 0.29734  0.72459  0.89774  Biso   1.000  Zr
  O734     1.0000 0.26409  0.68695  0.93194  Biso   1.000  O
  O735     1.0000 0.21569  0.70884  0.98053  Biso   1.000  O
  O736     1.0000 0.28826  0.78235  0.90711  Biso   1.000  O
  C517     1.0000 0.22068  0.71342  0.06116  Biso   1.000  C
  C518     1.0000 0.13462  0.71445  0.97527  Biso   1.000  C
  C519     1.0000 0.22122  0.62800  0.97602  Biso   1.000  C
  C520     1.0000 0.28435  0.77950  0.82794  Biso   1.000  C
  C521     1.0000 0.28463  0.86156  0.91033  Biso   1.000  C
  C522     1.0000 0.36785  0.77773  0.91146  Biso   1.000  C
  H545     1.0000 0.23355  0.83002  0.96251  Biso   1.000  H
  H546     1.0000 0.33640  0.72728  0.96179  Biso   1.000  H
  H547     1.0000 0.19937  0.69261  0.99672  Biso   1.000  H
  H548     1.0000 0.23289  0.72794  0.85924  Biso   1.000  H
  H549     1.0000 0.16644  0.77588  0.86556  Biso   1.000  H
  H550     1.0000 0.16979  0.71174  0.86003  Biso   1.000  H
  H551     1.0000 0.35444  0.76848  0.00635  Biso   1.000  H
  H552     1.0000 0.31397  0.72660  0.04472  Biso   1.000  H
  H553     1.0000 0.19180  0.85088  0.92091  Biso   1.000  H
  H554     1.0000 0.15209  0.80828  0.96345  Biso   1.000  H
  H555     1.0000 0.35408  0.68280  0.92020  Biso   1.000  H
  H556     1.0000 0.31452  0.64516  0.96294  Biso   1.000  H
  H557     1.0000 0.23324  0.80747  0.04447  Biso   1.000  H
  H558     1.0000 0.27588  0.85014  0.00463  Biso   1.000  H
  H559     1.0000 0.23438  0.64376  0.88375  Biso   1.000  H
  H560     1.0000 0.27503  0.68539  0.83896  Biso   1.000  H
  O737     1.0000 0.65073  0.19639  0.94737  Biso   1.000  O
  O738     1.0000 0.66428  0.20161  0.87921  Biso   1.000  O
  O739     1.0000 0.74862  0.14446  0.99285  Biso   1.000  O
  O740     1.0000 0.81292  0.15464  0.98988  Biso   1.000  O
  O741     1.0000 0.70245  0.24293  0.04495  Biso   1.000  O
  O742     1.0000 0.70773  0.31071  0.03094  Biso   1.000  O
  O743     1.0000 0.85214  0.25067  0.89263  Biso   1.000  O
  O744     1.0000 0.84181  0.18361  0.90042  Biso   1.000  O
  O745     1.0000 0.75669  0.29643  0.84331  Biso   1.000  O
  O746     1.0000 0.68642  0.29146  0.85672  Biso   1.000  O
  O747     1.0000 0.80252  0.34577  0.93877  Biso   1.000  O
  O748     1.0000 0.79795  0.33236  0.00899  Biso   1.000  O
  O749     1.0000 0.85214  0.29625  0.93851  Biso   1.000  O
  O750     1.0000 0.83899  0.29086  0.00883  Biso   1.000  O
  O751     1.0000 0.75665  0.34587  0.89311  Biso   1.000  O
  O752     1.0000 0.68636  0.33253  0.89810  Biso   1.000  O
  O753     1.0000 0.80254  0.25083  0.84319  Biso   1.000  O
  O754     1.0000 0.79643  0.18076  0.85595  Biso   1.000  O
  O755     1.0000 0.65069  0.24241  0.99311  Biso   1.000  O
  O756     1.0000 0.66436  0.31058  0.98731  Biso   1.000  O
  O757     1.0000 0.74805  0.19680  0.04497  Biso   1.000  O
  O758     1.0000 0.81689  0.20427  0.03087  Biso   1.000  O
  O759     1.0000 0.70277  0.14452  0.94694  Biso   1.000  O
  O760     1.0000 0.70770  0.15828  0.87904  Biso   1.000  O
  Zr139    1.0000 0.70592  0.19975  0.92272  Biso   1.000  Zr
  O761     1.0000 0.73965  0.23360  0.88581  Biso   1.000  O
  Zr140    1.0000 0.77285  0.19974  0.98982  Biso   1.000  Zr
  O762     1.0000 0.80976  0.23332  0.95556  Biso   1.000  O
  Zr141    1.0000 0.70582  0.26691  0.98960  Biso   1.000  Zr
  O763     1.0000 0.73981  0.30359  0.95576  Biso   1.000  O
  Zr142    1.0000 0.79784  0.22475  0.89745  Biso   1.000  Zr
  O764     1.0000 0.76420  0.18732  0.93150  Biso   1.000  O
  Zr143    1.0000 0.73079  0.29166  0.89766  Biso   1.000  Zr
  O765     1.0000 0.69336  0.25791  0.93146  Biso   1.000  O
  Zr144    1.0000 0.79793  0.29147  0.96459  Biso   1.000  Zr
  O766     1.0000 0.76393  0.25794  0.00208  Biso   1.000  O
  O767     1.0000 0.71551  0.20948  0.98012  Biso   1.000  O
  O768     1.0000 0.78859  0.28245  0.90681  Biso   1.000  O
  C523     1.0000 0.63479  0.21444  0.97524  Biso   1.000  C
  C524     1.0000 0.72082  0.12851  0.97472  Biso   1.000  C
  C525     1.0000 0.72039  0.21508  0.06098  Biso   1.000  C
  C526     1.0000 0.86793  0.27888  0.91020  Biso   1.000  C
  C527     1.0000 0.78497  0.27905  0.82745  Biso   1.000  C
  C528     1.0000 0.78491  0.36145  0.91061  Biso   1.000  C
  H561     1.0000 0.73343  0.22763  0.85901  Biso   1.000  H
  H562     1.0000 0.73384  0.33043  0.96184  Biso   1.000  H
  H563     1.0000 0.69932  0.19319  0.99638  Biso   1.000  H
  H564     1.0000 0.83670  0.22718  0.96109  Biso   1.000  H
  H565     1.0000 0.83070  0.16083  0.91287  Biso   1.000  H
  H566     1.0000 0.83621  0.16399  0.97701  Biso   1.000  H
  H567     1.0000 0.69056  0.34968  0.92007  Biso   1.000  H
  H568     1.0000 0.65141  0.30803  0.96236  Biso   1.000  H
  H569     1.0000 0.77491  0.18572  0.83844  Biso   1.000  H
  H570     1.0000 0.73299  0.14588  0.88085  Biso   1.000  H
  H571     1.0000 0.77589  0.34946  0.00503  Biso   1.000  H
  H572     1.0000 0.73293  0.30874  0.04349  Biso   1.000  H
  H573     1.0000 0.65170  0.22679  0.88126  Biso   1.000  H
  H574     1.0000 0.69051  0.26945  0.83958  Biso   1.000  H
  H575     1.0000 0.81252  0.22833  0.04497  Biso   1.000  H
  H576     1.0000 0.85619  0.26897  0.00439  Biso   1.000  H
  O769     1.0000 0.90090  0.74966  0.24423  Biso   1.000  O
  O770     1.0000 0.91430  0.68174  0.23909  Biso   1.000  O
  O771     1.0000 0.99901  0.79534  0.29586  Biso   1.000  O
  O772     1.0000 0.06334  0.79195  0.28559  Biso   1.000  O
  O773     1.0000 0.95258  0.84733  0.19802  Biso   1.000  O
  O774     1.0000 0.95779  0.83378  0.13014  Biso   1.000  O
  O775     1.0000 0.10192  0.69432  0.18987  Biso   1.000  O
  O776     1.0000 0.09184  0.70265  0.25666  Biso   1.000  O
  O777     1.0000 0.00627  0.64573  0.14414  Biso   1.000  O
  O778     1.0000 0.93620  0.65941  0.14867  Biso   1.000  O
  O779     1.0000 0.05215  0.74152  0.09419  Biso   1.000  O
  O780     1.0000 0.04901  0.81087  0.10760  Biso   1.000  O
  O781     1.0000 0.10217  0.74023  0.14421  Biso   1.000  O
  O782     1.0000 0.08894  0.81125  0.14996  Biso   1.000  O
  O783     1.0000 0.00627  0.69587  0.09418  Biso   1.000  O
  O784     1.0000 0.93619  0.70076  0.10784  Biso   1.000  O
  O785     1.0000 0.05213  0.64551  0.18985  Biso   1.000  O
  O786     1.0000 0.04605  0.65846  0.25984  Biso   1.000  O
  O787     1.0000 0.90081  0.79544  0.19826  Biso   1.000  O
  O788     1.0000 0.91456  0.79003  0.12989  Biso   1.000  O
  O789     1.0000 0.99839  0.84721  0.24395  Biso   1.000  O
  O790     1.0000 0.06722  0.83314  0.23585  Biso   1.000  O
  O791     1.0000 0.95302  0.74956  0.29586  Biso   1.000  O
  O792     1.0000 0.95803  0.68138  0.28207  Biso   1.000  O
  Zr145    1.0000 0.95605  0.72515  0.24070  Biso   1.000  Zr
  O793     1.0000 0.98955  0.68826  0.20670  Biso   1.000  O
  Zr146    1.0000 0.02316  0.79213  0.24059  Biso   1.000  Zr
  O794     1.0000 0.05992  0.75777  0.20698  Biso   1.000  O
  Zr147    1.0000 0.95595  0.79212  0.17364  Biso   1.000  Zr
  O795     1.0000 0.98987  0.75831  0.13686  Biso   1.000  O
  Zr148    1.0000 0.04773  0.69975  0.21566  Biso   1.000  Zr
  O796     1.0000 0.01432  0.73387  0.25314  Biso   1.000  O
  Zr149    1.0000 0.98069  0.70022  0.14863  Biso   1.000  Zr
  O797     1.0000 0.94339  0.73400  0.18256  Biso   1.000  O
  Zr150    1.0000 0.04809  0.76682  0.14883  Biso   1.000  Zr
  O798     1.0000 0.01415  0.80441  0.18239  Biso   1.000  O
  O799     1.0000 0.96577  0.78250  0.23097  Biso   1.000  O
  O800     1.0000 0.03855  0.70908  0.15786  Biso   1.000  O
  C529     1.0000 0.88493  0.77752  0.22623  Biso   1.000  C
  C530     1.0000 0.97110  0.77737  0.31178  Biso   1.000  C
  C531     1.0000 0.97054  0.86319  0.22596  Biso   1.000  C
  C532     1.0000 0.11773  0.71188  0.16173  Biso   1.000  C
  C533     1.0000 0.03435  0.62988  0.16177  Biso   1.000  C
  C534     1.0000 0.03430  0.71358  0.07837  Biso   1.000  C
  H577     1.0000 0.98322  0.66148  0.21267  Biso   1.000  H
  H578     1.0000 0.98387  0.76448  0.11004  Biso   1.000  H
  H579     1.0000 0.94955  0.79871  0.24729  Biso   1.000  H
  H580     1.0000 0.08688  0.76319  0.21310  Biso   1.000  H
  H581     1.0000 0.08085  0.71518  0.27945  Biso   1.000  H
  H582     1.0000 0.08670  0.77935  0.27607  Biso   1.000  H
  H583     1.0000 0.94015  0.72301  0.09099  Biso   1.000  H
  H584     1.0000 0.90138  0.76521  0.13253  Biso   1.000  H
  H585     1.0000 0.02448  0.64100  0.25490  Biso   1.000  H
  H586     1.0000 0.98303  0.68368  0.29496  Biso   1.000  H
  H587     1.0000 0.02549  0.80871  0.09221  Biso   1.000  H
  H588     1.0000 0.98296  0.84637  0.13222  Biso   1.000  H
  H589     1.0000 0.90180  0.68363  0.21385  Biso   1.000  H
  H590     1.0000 0.93992  0.64253  0.17094  Biso   1.000  H
  H591     1.0000 0.06260  0.84742  0.21195  Biso   1.000  H
  H592     1.0000 0.10697  0.80595  0.17098  Biso   1.000  H
  O801     1.0000 0.49728  0.29457  0.29596  Biso   1.000  O
  O802     1.0000 0.56546  0.28998  0.28222  Biso   1.000  O
  O803     1.0000 0.45159  0.34737  0.19858  Biso   1.000  O
  O804     1.0000 0.45467  0.33754  0.13408  Biso   1.000  O
  O805     1.0000 0.39971  0.24847  0.24407  Biso   1.000  O
  O806     1.0000 0.41383  0.18068  0.23815  Biso   1.000  O
  O807     1.0000 0.55212  0.24158  0.09437  Biso   1.000  O
  O808     1.0000 0.54366  0.30870  0.10481  Biso   1.000  O
  O809     1.0000 0.60161  0.19616  0.18971  Biso   1.000  O
  O810     1.0000 0.58799  0.20003  0.25975  Biso   1.000  O
  O811     1.0000 0.50585  0.14617  0.14354  Biso   1.000  O
  O812     1.0000 0.43551  0.15984  0.14830  Biso   1.000  O
  O813     1.0000 0.50599  0.19615  0.09402  Biso   1.000  O
  O814     1.0000 0.43600  0.20101  0.10707  Biso   1.000  O
  O815     1.0000 0.55167  0.14599  0.18927  Biso   1.000  O
  O816     1.0000 0.54683  0.15904  0.25956  Biso   1.000  O
  O817     1.0000 0.60156  0.24202  0.14401  Biso   1.000  O
  O818     1.0000 0.58845  0.31155  0.15001  Biso   1.000  O
  O819     1.0000 0.45154  0.24856  0.29572  Biso   1.000  O
  O820     1.0000 0.45739  0.18063  0.28165  Biso   1.000  O
  O821     1.0000 0.39960  0.29485  0.19873  Biso   1.000  O
  O822     1.0000 0.41356  0.28799  0.12993  Biso   1.000  O
  O823     1.0000 0.49723  0.34699  0.24459  Biso   1.000  O
  O824     1.0000 0.56523  0.33363  0.23915  Biso   1.000  O
  Zr151    1.0000 0.52179  0.29190  0.24074  Biso   1.000  Zr
  O825     1.0000 0.55872  0.25831  0.20680  Biso   1.000  O
  Zr152    1.0000 0.45472  0.29221  0.17389  Biso   1.000  Zr
  O826     1.0000 0.48896  0.25881  0.13679  Biso   1.000  O
  Zr153    1.0000 0.45508  0.22455  0.24045  Biso   1.000  Zr
  O827     1.0000 0.48901  0.18812  0.20631  Biso   1.000  O
  Zr154    1.0000 0.54706  0.26747  0.14866  Biso   1.000  Zr
  O828     1.0000 0.51301  0.30470  0.18255  Biso   1.000  O
  Zr155    1.0000 0.54708  0.20015  0.21535  Biso   1.000  Zr
  O829     1.0000 0.51320  0.23363  0.25296  Biso   1.000  O
  Zr156    1.0000 0.48009  0.20054  0.14830  Biso   1.000  Zr
  O830     1.0000 0.44257  0.23391  0.18242  Biso   1.000  O
  O831     1.0000 0.46443  0.28207  0.23114  Biso   1.000  O
  O832     1.0000 0.53789  0.20962  0.15759  Biso   1.000  O
  C535     1.0000 0.46943  0.27640  0.31178  Biso   1.000  C
  C536     1.0000 0.46941  0.36321  0.22672  Biso   1.000  C
  C537     1.0000 0.38365  0.27641  0.22632  Biso   1.000  C
  C538     1.0000 0.53434  0.21358  0.07849  Biso   1.000  C
  C539     1.0000 0.61741  0.21399  0.16171  Biso   1.000  C
  C540     1.0000 0.53399  0.13038  0.16112  Biso   1.000  C
  H593     1.0000 0.58549  0.26435  0.21309  Biso   1.000  H
  H594     1.0000 0.48298  0.16124  0.21216  Biso   1.000  H
  H595     1.0000 0.44816  0.29821  0.24748  Biso   1.000  H
  H596     1.0000 0.48339  0.26507  0.10988  Biso   1.000  H
  H597     1.0000 0.53141  0.33150  0.11610  Biso   1.000  H
  H598     1.0000 0.46729  0.32824  0.11064  Biso   1.000  H
  H599     1.0000 0.52482  0.14194  0.25537  Biso   1.000  H
  H600     1.0000 0.48239  0.18305  0.29452  Biso   1.000  H
  H601     1.0000 0.60514  0.30738  0.17233  Biso   1.000  H
  H602     1.0000 0.56309  0.34643  0.21408  Biso   1.000  H
  H603     1.0000 0.43971  0.14239  0.17004  Biso   1.000  H
  H604     1.0000 0.40103  0.18305  0.21311  Biso   1.000  H
  H605     1.0000 0.56342  0.26480  0.29481  Biso   1.000  H
  H606     1.0000 0.60462  0.22253  0.25627  Biso   1.000  H
  H607     1.0000 0.39968  0.26375  0.13399  Biso   1.000  H
  H608     1.0000 0.43985  0.22352  0.09054  Biso   1.000  H
  O833     1.0000 0.05180  0.99940  0.54636  Biso   1.000  O
  O834     1.0000 0.04685  0.93160  0.53256  Biso   1.000  O
  O835     1.0000 0.10378  0.04510  0.44795  Biso   1.000  O
  O836     1.0000 0.09301  0.04296  0.38382  Biso   1.000  O
  O837     1.0000 0.00581  0.09740  0.49519  Biso   1.000  O
  O838     1.0000 0.93785  0.08379  0.48973  Biso   1.000  O
  O839     1.0000 0.99738  0.94556  0.34496  Biso   1.000  O
  O840     1.0000 0.06436  0.95357  0.35511  Biso   1.000  O
  O841     1.0000 0.95215  0.89581  0.44065  Biso   1.000  O
  O842     1.0000 0.95659  0.90947  0.51078  Biso   1.000  O
  O843     1.0000 0.90226  0.99096  0.39441  Biso   1.000  O
  O844     1.0000 0.91536  0.06161  0.39987  Biso   1.000  O
  O845     1.0000 0.95198  0.99173  0.34491  Biso   1.000  O
  O846     1.0000 0.95655  0.06175  0.35850  Biso   1.000  O
  O847     1.0000 0.90231  0.94509  0.44007  Biso   1.000  O
  O848     1.0000 0.91542  0.95082  0.51063  Biso   1.000  O
  O849     1.0000 0.99744  0.89611  0.39437  Biso   1.000  O
  O850     1.0000 0.06739  0.90893  0.40037  Biso   1.000  O
  O851     1.0000 0.00581  0.04506  0.54663  Biso   1.000  O
  O852     1.0000 0.93768  0.04005  0.53288  Biso   1.000  O
  O853     1.0000 0.05166  0.09758  0.44943  Biso   1.000  O
  O854     1.0000 0.04351  0.08399  0.38060  Biso   1.000  O
  O855     1.0000 0.10378  0.99919  0.49379  Biso   1.000  O
  O856     1.0000 0.08972  0.93137  0.48900  Biso   1.000  O
  Zr157    1.0000 0.04843  0.97521  0.49101  Biso   1.000  Zr
  O857     1.0000 0.01448  0.93846  0.45729  Biso   1.000  O
  Zr158    1.0000 0.04827  0.04260  0.42429  Biso   1.000  Zr
  O858     1.0000 0.01457  0.00846  0.38741  Biso   1.000  O
  Zr159    1.0000 0.98138  0.04217  0.49145  Biso   1.000  Zr
  O859     1.0000 0.94448  0.00840  0.45749  Biso   1.000  O
  Zr160    1.0000 0.02332  0.95034  0.39915  Biso   1.000  Zr
  O860     1.0000 0.06078  0.98427  0.43277  Biso   1.000  O
  Zr161    1.0000 0.95640  0.95027  0.46630  Biso   1.000  Zr
  O861     1.0000 0.99030  0.98397  0.50370  Biso   1.000  O
  Zr162    1.0000 0.95639  0.01734  0.39937  Biso   1.000  Zr
  O862     1.0000 0.99008  0.05478  0.43335  Biso   1.000  O
  O863     1.0000 0.03880  0.03267  0.48166  Biso   1.000  O
  O864     1.0000 0.96558  0.95958  0.40852  Biso   1.000  O
  C541     1.0000 0.03377  0.02714  0.56257  Biso   1.000  C
  C542     1.0000 0.11988  0.02676  0.47551  Biso   1.000  C
  C543     1.0000 0.03376  0.11353  0.47741  Biso   1.000  C
  C544     1.0000 0.96939  0.96343  0.32922  Biso   1.000  C
  C545     1.0000 0.96957  0.88024  0.41229  Biso   1.000  C
  C546     1.0000 0.88670  0.96252  0.41175  Biso   1.000  C
  H609     1.0000 0.02049  0.91166  0.46345  Biso   1.000  H
  H610     1.0000 0.91765  0.01442  0.46353  Biso   1.000  H
  H611     1.0000 0.05524  0.04872  0.49793  Biso   1.000  H
  H612     1.0000 0.02064  0.01409  0.36048  Biso   1.000  H
  H613     1.0000 0.08715  0.96599  0.36621  Biso   1.000  H
  H614     1.0000 0.08354  0.03014  0.36056  Biso   1.000  H
  H615     1.0000 0.89765  0.97218  0.50581  Biso   1.000  H
  H616     1.0000 0.93971  0.01481  0.54534  Biso   1.000  H
  H617     1.0000 0.06252  0.89137  0.42187  Biso   1.000  H
  H618     1.0000 0.10221  0.93332  0.46376  Biso   1.000  H
  H619     1.0000 0.89782  0.05696  0.42144  Biso   1.000  H
  H620     1.0000 0.93966  0.09618  0.46444  Biso   1.000  H
  H621     1.0000 0.02165  0.93347  0.54514  Biso   1.000  H
  H622     1.0000 0.97885  0.89260  0.50696  Biso   1.000  H
  H623     1.0000 0.01954  0.09815  0.38527  Biso   1.000  H
  H624     1.0000 0.97902  0.05808  0.34187  Biso   1.000  H
  O865     1.0000 0.30043  0.39383  0.19825  Biso   1.000  O
  O866     1.0000 0.29582  0.40757  0.12999  Biso   1.000  O
  O867     1.0000 0.35315  0.49185  0.24369  Biso   1.000  O
  O868     1.0000 0.34309  0.55621  0.24038  Biso   1.000  O
  O869     1.0000 0.25515  0.44558  0.29566  Biso   1.000  O
  O870     1.0000 0.18699  0.45202  0.28205  Biso   1.000  O
  O871     1.0000 0.24706  0.59550  0.14309  Biso   1.000  O
  O872     1.0000 0.31425  0.58507  0.15142  Biso   1.000  O
  O873     1.0000 0.20156  0.50019  0.09385  Biso   1.000  O
  O874     1.0000 0.20620  0.42976  0.10767  Biso   1.000  O
  O875     1.0000 0.15175  0.54584  0.18985  Biso   1.000  O
  O876     1.0000 0.16539  0.54192  0.25967  Biso   1.000  O
  O877     1.0000 0.20143  0.59559  0.18892  Biso   1.000  O
  O878     1.0000 0.20713  0.58264  0.25943  Biso   1.000  O
  O879     1.0000 0.15164  0.50016  0.14398  Biso   1.000  O
  O880     1.0000 0.16476  0.43021  0.14843  Biso   1.000  O
  O881     1.0000 0.24732  0.54589  0.09374  Biso   1.000  O
  O882     1.0000 0.31705  0.53981  0.10671  Biso   1.000  O
  O883     1.0000 0.25438  0.39406  0.24395  Biso   1.000  O
  O884     1.0000 0.18656  0.40831  0.23853  Biso   1.000  O
  O885     1.0000 0.30129  0.49116  0.29556  Biso   1.000  O
  O886     1.0000 0.29339  0.56012  0.28171  Biso   1.000  O
  O887     1.0000 0.35294  0.44572  0.19806  Biso   1.000  O
  O888     1.0000 0.33943  0.45057  0.13013  Biso   1.000  O
  Zr163    1.0000 0.29773  0.44911  0.17360  Biso   1.000  Zr
  O889     1.0000 0.26404  0.48299  0.13661  Biso   1.000  O
  Zr164    1.0000 0.29794  0.51619  0.24054  Biso   1.000  Zr
  O890     1.0000 0.26444  0.55317  0.20625  Biso   1.000  O
  Zr165    1.0000 0.23057  0.44942  0.24051  Biso   1.000  Zr
  O891     1.0000 0.19404  0.48340  0.20649  Biso   1.000  O
  Zr166    1.0000 0.27302  0.54120  0.14815  Biso   1.000  Zr
  O892     1.0000 0.31033  0.50740  0.18224  Biso   1.000  O
  Zr167    1.0000 0.20593  0.47435  0.14836  Biso   1.000  Zr
  O893     1.0000 0.23949  0.43686  0.18234  Biso   1.000  O
  Zr168    1.0000 0.20626  0.54150  0.21526  Biso   1.000  Zr
  O894     1.0000 0.23972  0.50751  0.25286  Biso   1.000  O
  O895     1.0000 0.28801  0.45885  0.23091  Biso   1.000  O
  O896     1.0000 0.21524  0.53214  0.15745  Biso   1.000  O
  C547     1.0000 0.28217  0.37794  0.22605  Biso   1.000  C
  C548     1.0000 0.36900  0.46385  0.22579  Biso   1.000  C
  C549     1.0000 0.28326  0.46329  0.31151  Biso   1.000  C
  C550     1.0000 0.21879  0.61132  0.16056  Biso   1.000  C
  C551     1.0000 0.21915  0.52831  0.07790  Biso   1.000  C
  C552     1.0000 0.13597  0.52821  0.16175  Biso   1.000  C
  H625     1.0000 0.27003  0.47671  0.10983  Biso   1.000  H
  H626     1.0000 0.16718  0.47749  0.21257  Biso   1.000  H
  H627     1.0000 0.30425  0.44247  0.24702  Biso   1.000  H
  H628     1.0000 0.27062  0.58011  0.21174  Biso   1.000  H
  H629     1.0000 0.33701  0.57383  0.16377  Biso   1.000  H
  H630     1.0000 0.33359  0.57968  0.22797  Biso   1.000  H
  H631     1.0000 0.14817  0.43389  0.17092  Biso   1.000  H
  H632     1.0000 0.18874  0.39547  0.21349  Biso   1.000  H
  H633     1.0000 0.31258  0.51776  0.08974  Biso   1.000  H
  H634     1.0000 0.35185  0.47585  0.13186  Biso   1.000  H
  H635     1.0000 0.14904  0.51917  0.25655  Biso   1.000  H
  H636     1.0000 0.18986  0.47685  0.29514  Biso   1.000  H
  H637     1.0000 0.27060  0.39507  0.13199  Biso   1.000  H
  H638     1.0000 0.22799  0.43398  0.09028  Biso   1.000  H
  H639     1.0000 0.26942  0.55561  0.29592  Biso   1.000  H
  H640     1.0000 0.22886  0.59997  0.25473  Biso   1.000  H
  O897     1.0000 0.65048  0.04559  0.19031  Biso   1.000  O
  O898     1.0000 0.66399  0.04055  0.25832  Biso   1.000  O
  O899     1.0000 0.74837  0.09761  0.14471  Biso   1.000  O
  O900     1.0000 0.81274  0.08740  0.14786  Biso   1.000  O
  O901     1.0000 0.70235  0.99921  0.09255  Biso   1.000  O
  O902     1.0000 0.70752  0.93145  0.10647  Biso   1.000  O
  O903     1.0000 0.85178  0.99180  0.24502  Biso   1.000  O
  O904     1.0000 0.84133  0.05861  0.23730  Biso   1.000  O
  O905     1.0000 0.75655  0.94542  0.29404  Biso   1.000  O
  O906     1.0000 0.68595  0.95081  0.28064  Biso   1.000  O
  O907     1.0000 0.80219  0.89615  0.19897  Biso   1.000  O
  O908     1.0000 0.79780  0.90959  0.12867  Biso   1.000  O
  O909     1.0000 0.85194  0.94611  0.19914  Biso   1.000  O
  O910     1.0000 0.83881  0.95097  0.12886  Biso   1.000  O
  O911     1.0000 0.75604  0.89598  0.24436  Biso   1.000  O
  O912     1.0000 0.68603  0.90945  0.23953  Biso   1.000  O
  O913     1.0000 0.80264  0.99087  0.29409  Biso   1.000  O
  O914     1.0000 0.79551  0.06134  0.28163  Biso   1.000  O
  O915     1.0000 0.65048  0.99965  0.14449  Biso   1.000  O
  O916     1.0000 0.66417  0.93149  0.15003  Biso   1.000  O
  O917     1.0000 0.74798  0.04531  0.09260  Biso   1.000  O
  O918     1.0000 0.81671  0.03788  0.10675  Biso   1.000  O
  O919     1.0000 0.70246  0.09755  0.19056  Biso   1.000  O
  O920     1.0000 0.70751  0.08372  0.25855  Biso   1.000  O
  Zr169    1.0000 0.70565  0.04231  0.21482  Biso   1.000  Zr
  O921     1.0000 0.73930  0.00840  0.25176  Biso   1.000  O
  Zr170    1.0000 0.77264  0.04233  0.14777  Biso   1.000  Zr
  O922     1.0000 0.80946  0.00871  0.18204  Biso   1.000  O
  Zr171    1.0000 0.70562  0.97517  0.14789  Biso   1.000  Zr
  O923     1.0000 0.73954  0.93844  0.18174  Biso   1.000  O
  Zr172    1.0000 0.79745  0.01736  0.24013  Biso   1.000  Zr
  O924     1.0000 0.76391  0.05480  0.20605  Biso   1.000  O
  Zr173    1.0000 0.73044  0.95033  0.23983  Biso   1.000  Zr
  O925     1.0000 0.69309  0.98414  0.20601  Biso   1.000  O
  Zr174    1.0000 0.79768  0.95051  0.17304  Biso   1.000  Zr
  O926     1.0000 0.76376  0.98411  0.13551  Biso   1.000  O
  O927     1.0000 0.71528  0.03260  0.15741  Biso   1.000  O
  O928     1.0000 0.78824  0.95961  0.23075  Biso   1.000  O
  C553     1.0000 0.63455  0.02755  0.16245  Biso   1.000  C
  C554     1.0000 0.72055  0.11358  0.16281  Biso   1.000  C
  C555     1.0000 0.72034  0.02705  0.07655  Biso   1.000  C
  C556     1.0000 0.86756  0.96371  0.22737  Biso   1.000  C
  C557     1.0000 0.78500  0.96265  0.30966  Biso   1.000  C
  C558     1.0000 0.78436  0.88036  0.22696  Biso   1.000  C
  H641     1.0000 0.73306  0.01434  0.27856  Biso   1.000  H
  H642     1.0000 0.73356  0.91160  0.17565  Biso   1.000  H
  H643     1.0000 0.69908  0.04888  0.14115  Biso   1.000  H
  H644     1.0000 0.83639  0.01488  0.17653  Biso   1.000  H
  H645     1.0000 0.83017  0.08142  0.22496  Biso   1.000  H
  H646     1.0000 0.83598  0.07803  0.16080  Biso   1.000  H
  H647     1.0000 0.68987  0.89267  0.21720  Biso   1.000  H
  H648     1.0000 0.65117  0.93400  0.17495  Biso   1.000  H
  H649     1.0000 0.77494  0.05542  0.29998  Biso   1.000  H
  H650     1.0000 0.73276  0.09619  0.25667  Biso   1.000  H
  H651     1.0000 0.77571  0.89252  0.13259  Biso   1.000  H
  H652     1.0000 0.73281  0.93330  0.09408  Biso   1.000  H
  H653     1.0000 0.65164  0.01524  0.25651  Biso   1.000  H
  H654     1.0000 0.69064  0.97220  0.29840  Biso   1.000  H
  H655     1.0000 0.81245  0.01377  0.09272  Biso   1.000  H
  H656     1.0000 0.85572  0.97314  0.13302  Biso   1.000  H
  O929     1.0000 0.05113  0.49895  0.04548  Biso   1.000  O
  O930     1.0000 0.04591  0.43087  0.03176  Biso   1.000  O
  O931     1.0000 0.10376  0.54450  0.94808  Biso   1.000  O
  O932     1.0000 0.09391  0.54126  0.88358  Biso   1.000  O
  O933     1.0000 0.00522  0.59693  0.99351  Biso   1.000  O
  O934     1.0000 0.93752  0.58322  0.98823  Biso   1.000  O
  O935     1.0000 0.99717  0.44474  0.84397  Biso   1.000  O
  O936     1.0000 0.06433  0.45224  0.85436  Biso   1.000  O
  O937     1.0000 0.95124  0.39551  0.93959  Biso   1.000  O
  O938     1.0000 0.95531  0.40877  0.00923  Biso   1.000  O
  O939     1.0000 0.90238  0.49125  0.89298  Biso   1.000  O
  O940     1.0000 0.91626  0.56173  0.89827  Biso   1.000  O
  O941     1.0000 0.95209  0.49121  0.84365  Biso   1.000  O
  O942     1.0000 0.95748  0.56113  0.85688  Biso   1.000  O
  O943     1.0000 0.90195  0.44556  0.93884  Biso   1.000  O
  O944     1.0000 0.91529  0.45113  0.00970  Biso   1.000  O
  O945     1.0000 0.99677  0.39532  0.89357  Biso   1.000  O
  O946     1.0000 0.06681  0.40762  0.89965  Biso   1.000  O
  O947     1.0000 0.00536  0.54495  0.04536  Biso   1.000  O
  O948     1.0000 0.93726  0.53959  0.03143  Biso   1.000  O
  O949     1.0000 0.05151  0.59676  0.94807  Biso   1.000  O
  O950     1.0000 0.04465  0.58269  0.87934  Biso   1.000  O
  O951     1.0000 0.10334  0.49863  0.99395  Biso   1.000  O
  O952     1.0000 0.08939  0.43072  0.98842  Biso   1.000  O
  Zr175    1.0000 0.04805  0.47451  0.99026  Biso   1.000  Zr
  O953     1.0000 0.01404  0.43784  0.95644  Biso   1.000  O
  Zr176    1.0000 0.04860  0.54160  0.92340  Biso   1.000  Zr
  O954     1.0000 0.01490  0.50760  0.88637  Biso   1.000  O
  Zr177    1.0000 0.98111  0.54167  0.99015  Biso   1.000  Zr
  O955     1.0000 0.94432  0.50809  0.95603  Biso   1.000  O
  Zr178    1.0000 0.02312  0.44943  0.89826  Biso   1.000  Zr
  O956     1.0000 0.06070  0.48323  0.93202  Biso   1.000  O
  Zr179    1.0000 0.95599  0.44997  0.96513  Biso   1.000  Zr
  O957     1.0000 0.98988  0.48350  0.00265  Biso   1.000  O
  Zr180    1.0000 0.95673  0.51694  0.89799  Biso   1.000  Zr
  O958     1.0000 0.99042  0.55416  0.93210  Biso   1.000  O
  O959     1.0000 0.03855  0.53196  0.98069  Biso   1.000  O
  O960     1.0000 0.96543  0.45911  0.90736  Biso   1.000  O
  C559     1.0000 0.03313  0.52687  0.06137  Biso   1.000  C
  C560     1.0000 0.11954  0.52638  0.97601  Biso   1.000  C
  C561     1.0000 0.03312  0.61286  0.97560  Biso   1.000  C
  C562     1.0000 0.96931  0.46274  0.82810  Biso   1.000  C
  C563     1.0000 0.96864  0.37971  0.91135  Biso   1.000  C
  C564     1.0000 0.88654  0.46311  0.91050  Biso   1.000  C
  H657     1.0000 0.01985  0.41101  0.96268  Biso   1.000  H
  H658     1.0000 0.91749  0.51429  0.96192  Biso   1.000  H
  H659     1.0000 0.05479  0.54818  0.99698  Biso   1.000  H
  H660     1.0000 0.02117  0.51312  0.85946  Biso   1.000  H
  H661     1.0000 0.08722  0.46442  0.86555  Biso   1.000  H
  H662     1.0000 0.08455  0.52857  0.86021  Biso   1.000  H
  H663     1.0000 0.89732  0.47223  0.00454  Biso   1.000  H
  H664     1.0000 0.93961  0.51462  0.04437  Biso   1.000  H
  H665     1.0000 0.06199  0.39044  0.92147  Biso   1.000  H
  H666     1.0000 0.10201  0.43270  0.96325  Biso   1.000  H
  H667     1.0000 0.89838  0.55715  0.91958  Biso   1.000  H
  H668     1.0000 0.93944  0.59564  0.96296  Biso   1.000  H
  H669     1.0000 0.02077  0.43308  0.04438  Biso   1.000  H
  H670     1.0000 0.97817  0.39254  0.00626  Biso   1.000  H
  H671     1.0000 0.02052  0.59675  0.88340  Biso   1.000  H
  H672     1.0000 0.97986  0.55707  0.84023  Biso   1.000  H
  O961     1.0000 0.49797  0.79524  0.79478  Biso   1.000  O
  O962     1.0000 0.56573  0.79087  0.78065  Biso   1.000  O
  O963     1.0000 0.45147  0.84741  0.69671  Biso   1.000  O
  O964     1.0000 0.45420  0.83701  0.63246  Biso   1.000  O
  O965     1.0000 0.39990  0.74957  0.74390  Biso   1.000  O
  O966     1.0000 0.41326  0.68164  0.73790  Biso   1.000  O
  O967     1.0000 0.55148  0.74153  0.59310  Biso   1.000  O
  O968     1.0000 0.54360  0.80832  0.60347  Biso   1.000  O
  O969     1.0000 0.60131  0.69597  0.68886  Biso   1.000  O
  O970     1.0000 0.58793  0.70018  0.75871  Biso   1.000  O
  O971     1.0000 0.50525  0.64580  0.64325  Biso   1.000  O
  O972     1.0000 0.43557  0.65922  0.64730  Biso   1.000  O
  O973     1.0000 0.50549  0.69597  0.59310  Biso   1.000  O
  O974     1.0000 0.43516  0.70099  0.60688  Biso   1.000  O
  O975     1.0000 0.55119  0.64585  0.68884  Biso   1.000  O
  O976     1.0000 0.54648  0.65955  0.75909  Biso   1.000  O
  O977     1.0000 0.60117  0.74151  0.64285  Biso   1.000  O
  O978     1.0000 0.58815  0.81132  0.64863  Biso   1.000  O
  O979     1.0000 0.45240  0.74905  0.79507  Biso   1.000  O
  O980     1.0000 0.45722  0.68102  0.78086  Biso   1.000  O
  O981     1.0000 0.39964  0.79549  0.69809  Biso   1.000  O
  O982     1.0000 0.41309  0.78726  0.62904  Biso   1.000  O
  O983     1.0000 0.49737  0.84746  0.74256  Biso   1.000  O
  O984     1.0000 0.56545  0.83386  0.73713  Biso   1.000  O
  Zr181    1.0000 0.52190  0.79228  0.73933  Biso   1.000  Zr
  O985     1.0000 0.55862  0.75833  0.70557  Biso   1.000  O
  Zr182    1.0000 0.45448  0.79208  0.67273  Biso   1.000  Zr
  O986     1.0000 0.48865  0.75852  0.63574  Biso   1.000  O
  Zr183    1.0000 0.45502  0.72504  0.73976  Biso   1.000  Zr
  O987     1.0000 0.48872  0.68833  0.70567  Biso   1.000  O
  Zr184    1.0000 0.54678  0.76721  0.64744  Biso   1.000  Zr
  O988     1.0000 0.51281  0.80465  0.68111  Biso   1.000  O
  Zr185    1.0000 0.54684  0.70024  0.71449  Biso   1.000  Zr
  O989     1.0000 0.51322  0.73410  0.75196  Biso   1.000  O
  Zr186    1.0000 0.47975  0.70033  0.64756  Biso   1.000  Zr
  O990     1.0000 0.44231  0.73387  0.68169  Biso   1.000  O
  O991     1.0000 0.46450  0.78246  0.73006  Biso   1.000  O
  O992     1.0000 0.53760  0.70938  0.65664  Biso   1.000  O
  C565     1.0000 0.47048  0.77687  0.81097  Biso   1.000  C
  C566     1.0000 0.46955  0.86342  0.72448  Biso   1.000  C
  C567     1.0000 0.38389  0.77756  0.72613  Biso   1.000  C
  C568     1.0000 0.53361  0.71358  0.57730  Biso   1.000  C
  C569     1.0000 0.61705  0.71363  0.66074  Biso   1.000  C
  C570     1.0000 0.53333  0.63002  0.66093  Biso   1.000  C
  H673     1.0000 0.58543  0.76435  0.71175  Biso   1.000  H
  H674     1.0000 0.48266  0.66150  0.71172  Biso   1.000  H
  H675     1.0000 0.44850  0.79875  0.74652  Biso   1.000  H
  H676     1.0000 0.48300  0.76466  0.60883  Biso   1.000  H
  H677     1.0000 0.53097  0.83101  0.61454  Biso   1.000  H
  H678     1.0000 0.46676  0.82752  0.60906  Biso   1.000  H
  H679     1.0000 0.52468  0.64219  0.75483  Biso   1.000  H
  H680     1.0000 0.48226  0.68331  0.79368  Biso   1.000  H
  H681     1.0000 0.60532  0.80683  0.67051  Biso   1.000  H
  H682     1.0000 0.56311  0.84658  0.71205  Biso   1.000  H
  H683     1.0000 0.43847  0.64330  0.67038  Biso   1.000  H
  H684     1.0000 0.40041  0.68397  0.71288  Biso   1.000  H
  H685     1.0000 0.56411  0.76560  0.79312  Biso   1.000  H
  H686     1.0000 0.60446  0.72274  0.75522  Biso   1.000  H
  H687     1.0000 0.39874  0.76345  0.63390  Biso   1.000  H
  H688     1.0000 0.43939  0.72298  0.58974  Biso   1.000  H
  O993     1.0000 0.99781  0.29469  0.79498  Biso   1.000  O
  O994     1.0000 0.06596  0.28950  0.78146  Biso   1.000  O
  O995     1.0000 0.95221  0.34649  0.69702  Biso   1.000  O
  O996     1.0000 0.95573  0.33623  0.63261  Biso   1.000  O
  O997     1.0000 0.90029  0.24868  0.74348  Biso   1.000  O
  O998     1.0000 0.91390  0.18062  0.73791  Biso   1.000  O
  O999     1.0000 0.05258  0.24018  0.59366  Biso   1.000  O
  O1000    1.0000 0.04482  0.30714  0.60395  Biso   1.000  O
  O1001    1.0000 0.10196  0.19460  0.68937  Biso   1.000  O
  O1002    1.0000 0.08832  0.19934  0.75949  Biso   1.000  O
  O1003    1.0000 0.00588  0.14476  0.64382  Biso   1.000  O
  O1004    1.0000 0.93614  0.15852  0.64760  Biso   1.000  O
  O1005    1.0000 0.00662  0.19469  0.59362  Biso   1.000  O
  O1006    1.0000 0.93629  0.20002  0.60687  Biso   1.000  O
  O1007    1.0000 0.05161  0.14469  0.68963  Biso   1.000  O
  O1008    1.0000 0.04707  0.15845  0.75960  Biso   1.000  O
  O1009    1.0000 0.10212  0.24017  0.64348  Biso   1.000  O
  O1010    1.0000 0.08930  0.31000  0.64920  Biso   1.000  O
  O1011    1.0000 0.95202  0.24871  0.79505  Biso   1.000  O
  O1012    1.0000 0.95754  0.18052  0.78140  Biso   1.000  O
  O1013    1.0000 0.90037  0.29468  0.69774  Biso   1.000  O
  O1014    1.0000 0.91427  0.28655  0.62886  Biso   1.000  O
  O1015    1.0000 0.99803  0.34646  0.74297  Biso   1.000  O
  O1016    1.0000 0.06612  0.33273  0.73786  Biso   1.000  O
  Zr187    1.0000 0.02245  0.29126  0.73980  Biso   1.000  Zr
  O1017    1.0000 0.05932  0.25726  0.70616  Biso   1.000  O
  Zr188    1.0000 0.95542  0.29122  0.67280  Biso   1.000  Zr
  O1018    1.0000 0.98966  0.25751  0.63601  Biso   1.000  O
  Zr189    1.0000 0.95547  0.22420  0.73994  Biso   1.000  Zr
  O1019    1.0000 0.98930  0.18742  0.70606  Biso   1.000  O
  Zr190    1.0000 0.04777  0.26604  0.64795  Biso   1.000  Zr
  O1020    1.0000 0.01374  0.30361  0.68149  Biso   1.000  O
  Zr191    1.0000 0.04744  0.19919  0.71507  Biso   1.000  Zr
  O1021    1.0000 0.01364  0.23310  0.75241  Biso   1.000  O
  Zr192    1.0000 0.98057  0.19937  0.64789  Biso   1.000  Zr
  O1022    1.0000 0.94306  0.23304  0.68179  Biso   1.000  O
  O1023    1.0000 0.96511  0.28154  0.73014  Biso   1.000  O
  O1024    1.0000 0.03841  0.20827  0.65719  Biso   1.000  O
  C571     1.0000 0.96989  0.27671  0.81092  Biso   1.000  C
  C572     1.0000 0.97018  0.36241  0.72494  Biso   1.000  C
  C573     1.0000 0.88443  0.27669  0.72564  Biso   1.000  C
  C574     1.0000 0.03490  0.21209  0.57779  Biso   1.000  C
  C575     1.0000 0.11794  0.21209  0.66121  Biso   1.000  C
  C576     1.0000 0.03382  0.12890  0.66165  Biso   1.000  C
  H689     1.0000 0.08611  0.26322  0.71242  Biso   1.000  H
  H690     1.0000 0.98314  0.16061  0.71211  Biso   1.000  H
  H691     1.0000 0.94895  0.29787  0.74638  Biso   1.000  H
  H692     1.0000 0.98416  0.26361  0.60905  Biso   1.000  H
  H693     1.0000 0.03230  0.32990  0.61500  Biso   1.000  H
  H694     1.0000 0.96809  0.32660  0.60917  Biso   1.000  H
  H695     1.0000 0.02467  0.14176  0.75588  Biso   1.000  H
  H696     1.0000 0.98244  0.18306  0.79445  Biso   1.000  H
  H697     1.0000 0.10634  0.30551  0.67120  Biso   1.000  H
  H698     1.0000 0.06403  0.34535  0.71270  Biso   1.000  H
  H699     1.0000 0.93917  0.14233  0.67048  Biso   1.000  H
  H700     1.0000 0.90102  0.18302  0.71291  Biso   1.000  H
  H701     1.0000 0.06389  0.26434  0.79409  Biso   1.000  H
  H702     1.0000 0.10524  0.22156  0.75565  Biso   1.000  H
  H703     1.0000 0.89999  0.26265  0.63349  Biso   1.000  H
