data_image0
_cell_length_a       29.497
_cell_length_b       29.497
_cell_length_c       29.497
_cell_angle_alpha    90
_cell_angle_beta     90
_cell_angle_gamma    90

_symmetry_space_group_name_H-M    "P 1"
_symmetry_int_tables_number       1

loop_
  _symmetry_equiv_pos_as_xyz
  'x, y, z'

loop_
  _atom_site_label
  _atom_site_occupancy
  _atom_site_fract_x
  _atom_site_fract_y
  _atom_site_fract_z
  _atom_site_thermal_displace_type
  _atom_site_B_iso_or_equiv
  _atom_site_type_symbol
  C1       1.0000 0.55506  0.05506  0.44494  Biso   1.000  C
  C2       1.0000 0.94494  0.94494  0.94494  Biso   1.000  C
  C3       1.0000 0.44494  0.55506  0.05506  Biso   1.000  C
  C4       1.0000 0.05506  0.44494  0.55506  Biso   1.000  C
  C5       1.0000 0.80506  0.80506  0.80506  Biso   1.000  C
  C6       1.0000 0.69494  0.19494  0.30506  Biso   1.000  C
  C7       1.0000 0.30506  0.69494  0.19494  Biso   1.000  C
  C8       1.0000 0.19494  0.30506  0.69494  Biso   1.000  C
  C9       1.0000 0.62500  0.12500  0.37500  Biso   1.000  C
  C10      1.0000 0.87500  0.87500  0.87500  Biso   1.000  C
  C11      1.0000 0.37500  0.62500  0.12500  Biso   1.000  C
  C12      1.0000 0.12500  0.37500  0.62500  Biso   1.000  C
  C13      1.0000 0.44930  0.15900  0.44490  Biso   1.000  C
  C14      1.0000 0.39720  0.21510  0.42410  Biso   1.000  C
  C15      1.0000 0.46800  0.23660  0.30740  Biso   1.000  C
  C16      1.0000 0.51410  0.18050  0.32700  Biso   1.000  C
  C17      1.0000 0.05070  0.84100  0.94490  Biso   1.000  C
  C18      1.0000 0.10280  0.78490  0.92410  Biso   1.000  C
  C19      1.0000 0.03200  0.76340  0.80740  Biso   1.000  C
  C20      1.0000 0.98590  0.81950  0.82700  Biso   1.000  C
  C21      1.0000 0.55070  0.65900  0.05510  Biso   1.000  C
  C22      1.0000 0.60280  0.71510  0.07590  Biso   1.000  C
  C23      1.0000 0.53200  0.73660  0.19260  Biso   1.000  C
  C24      1.0000 0.48590  0.68050  0.17300  Biso   1.000  C
  C25      1.0000 0.94930  0.34100  0.55510  Biso   1.000  C
  C26      1.0000 0.89720  0.28490  0.57590  Biso   1.000  C
  C27      1.0000 0.96800  0.26340  0.69260  Biso   1.000  C
  C28      1.0000 0.01410  0.31950  0.67300  Biso   1.000  C
  C29      1.0000 0.44490  0.44930  0.15900  Biso   1.000  C
  C30      1.0000 0.42410  0.39720  0.21510  Biso   1.000  C
  C31      1.0000 0.30740  0.46800  0.23660  Biso   1.000  C
  C32      1.0000 0.32700  0.51410  0.18050  Biso   1.000  C
  C33      1.0000 0.94490  0.05070  0.84100  Biso   1.000  C
  C34      1.0000 0.92410  0.10280  0.78490  Biso   1.000  C
  C35      1.0000 0.80740  0.03200  0.76340  Biso   1.000  C
  C36      1.0000 0.82700  0.98590  0.81950  Biso   1.000  C
  C37      1.0000 0.05510  0.55070  0.65900  Biso   1.000  C
  C38      1.0000 0.07590  0.60280  0.71510  Biso   1.000  C
  C39      1.0000 0.19260  0.53200  0.73660  Biso   1.000  C
  C40      1.0000 0.17300  0.48590  0.68050  Biso   1.000  C
  C41      1.0000 0.55510  0.94930  0.34100  Biso   1.000  C
  C42      1.0000 0.57590  0.89720  0.28490  Biso   1.000  C
  C43      1.0000 0.69260  0.96800  0.26340  Biso   1.000  C
  C44      1.0000 0.67300  0.01410  0.31950  Biso   1.000  C
  C45      1.0000 0.15900  0.44490  0.44930  Biso   1.000  C
  C46      1.0000 0.21510  0.42410  0.39720  Biso   1.000  C
  C47      1.0000 0.23660  0.30740  0.46800  Biso   1.000  C
  C48      1.0000 0.18050  0.32700  0.51410  Biso   1.000  C
  C49      1.0000 0.84100  0.94490  0.05070  Biso   1.000  C
  C50      1.0000 0.78490  0.92410  0.10280  Biso   1.000  C
  C51      1.0000 0.76340  0.80740  0.03200  Biso   1.000  C
  C52      1.0000 0.81950  0.82700  0.98590  Biso   1.000  C
  C53      1.0000 0.65900  0.05510  0.55070  Biso   1.000  C
  C54      1.0000 0.71510  0.07590  0.60280  Biso   1.000  C
  C55      1.0000 0.73660  0.19260  0.53200  Biso   1.000  C
  C56      1.0000 0.68050  0.17300  0.48590  Biso   1.000  C
  C57      1.0000 0.34100  0.55510  0.94930  Biso   1.000  C
  C58      1.0000 0.28490  0.57590  0.89720  Biso   1.000  C
  C59      1.0000 0.26340  0.69260  0.96800  Biso   1.000  C
  C60      1.0000 0.31950  0.67300  0.01410  Biso   1.000  C
  C61      1.0000 0.90900  0.69930  0.80510  Biso   1.000  C
  C62      1.0000 0.96510  0.64720  0.82590  Biso   1.000  C
  C63      1.0000 0.98660  0.71800  0.94260  Biso   1.000  C
  C64      1.0000 0.93050  0.76410  0.92300  Biso   1.000  C
  C65      1.0000 0.59100  0.30070  0.30510  Biso   1.000  C
  C66      1.0000 0.53490  0.35280  0.32590  Biso   1.000  C
  C67      1.0000 0.51340  0.28200  0.44260  Biso   1.000  C
  C68      1.0000 0.56950  0.23590  0.42300  Biso   1.000  C
  C69      1.0000 0.40900  0.80070  0.19490  Biso   1.000  C
  C70      1.0000 0.46510  0.85280  0.17410  Biso   1.000  C
  C71      1.0000 0.48660  0.78200  0.05740  Biso   1.000  C
  C72      1.0000 0.43050  0.73590  0.07700  Biso   1.000  C
  C73      1.0000 0.09100  0.19930  0.69490  Biso   1.000  C
  C74      1.0000 0.03490  0.14720  0.67410  Biso   1.000  C
  C75      1.0000 0.01340  0.21800  0.55740  Biso   1.000  C
  C76      1.0000 0.06950  0.26410  0.57700  Biso   1.000  C
  C77      1.0000 0.19930  0.69490  0.09100  Biso   1.000  C
  C78      1.0000 0.14720  0.67410  0.03490  Biso   1.000  C
  C79      1.0000 0.21800  0.55740  0.01340  Biso   1.000  C
  C80      1.0000 0.26410  0.57700  0.06950  Biso   1.000  C
  C81      1.0000 0.80070  0.19490  0.40900  Biso   1.000  C
  C82      1.0000 0.85280  0.17410  0.46510  Biso   1.000  C
  C83      1.0000 0.78200  0.05740  0.48660  Biso   1.000  C
  C84      1.0000 0.73590  0.07700  0.43050  Biso   1.000  C
  C85      1.0000 0.30070  0.30510  0.59100  Biso   1.000  C
  C86      1.0000 0.35280  0.32590  0.53490  Biso   1.000  C
  C87      1.0000 0.28200  0.44260  0.51340  Biso   1.000  C
  C88      1.0000 0.23590  0.42300  0.56950  Biso   1.000  C
  C89      1.0000 0.69930  0.80510  0.90900  Biso   1.000  C
  C90      1.0000 0.64720  0.82590  0.96510  Biso   1.000  C
  C91      1.0000 0.71800  0.94260  0.98660  Biso   1.000  C
  C92      1.0000 0.76410  0.92300  0.93050  Biso   1.000  C
  C93      1.0000 0.19490  0.40900  0.80070  Biso   1.000  C
  C94      1.0000 0.17410  0.46510  0.85280  Biso   1.000  C
  C95      1.0000 0.05740  0.48660  0.78200  Biso   1.000  C
  C96      1.0000 0.07700  0.43050  0.73590  Biso   1.000  C
  C97      1.0000 0.69490  0.09100  0.19930  Biso   1.000  C
  C98      1.0000 0.67410  0.03490  0.14720  Biso   1.000  C
  C99      1.0000 0.55740  0.01340  0.21800  Biso   1.000  C
  C100     1.0000 0.57700  0.06950  0.26410  Biso   1.000  C
  C101     1.0000 0.80510  0.90900  0.69930  Biso   1.000  C
  C102     1.0000 0.82590  0.96510  0.64720  Biso   1.000  C
  C103     1.0000 0.94260  0.98660  0.71800  Biso   1.000  C
  C104     1.0000 0.92300  0.93050  0.76410  Biso   1.000  C
  C105     1.0000 0.30510  0.59100  0.30070  Biso   1.000  C
  C106     1.0000 0.32590  0.53490  0.35280  Biso   1.000  C
  C107     1.0000 0.44260  0.51340  0.28200  Biso   1.000  C
  C108     1.0000 0.42300  0.56950  0.23590  Biso   1.000  C
  C109     1.0000 0.48770  0.16280  0.38680  Biso   1.000  C
  C110     1.0000 0.45220  0.17420  0.41740  Biso   1.000  C
  C111     1.0000 0.42190  0.20850  0.40570  Biso   1.000  C
  C112     1.0000 0.42980  0.23460  0.36260  Biso   1.000  C
  C113     1.0000 0.46370  0.22190  0.33490  Biso   1.000  C
  C114     1.0000 0.49090  0.18800  0.34690  Biso   1.000  C
  C115     1.0000 0.52310  0.12770  0.39650  Biso   1.000  C
  C116     1.0000 0.39580  0.27640  0.35550  Biso   1.000  C
  C117     1.0000 0.33510  0.31610  0.37510  Biso   1.000  C
  C118     1.0000 0.01230  0.83720  0.88680  Biso   1.000  C
  C119     1.0000 0.04780  0.82580  0.91740  Biso   1.000  C
  C120     1.0000 0.07810  0.79150  0.90570  Biso   1.000  C
  C121     1.0000 0.07020  0.76540  0.86260  Biso   1.000  C
  C122     1.0000 0.03630  0.77810  0.83490  Biso   1.000  C
  C123     1.0000 0.00910  0.81200  0.84690  Biso   1.000  C
  C124     1.0000 0.97690  0.87230  0.89650  Biso   1.000  C
  C125     1.0000 0.10420  0.72360  0.85550  Biso   1.000  C
  C126     1.0000 0.16490  0.68390  0.87510  Biso   1.000  C
  C127     1.0000 0.51230  0.66280  0.11320  Biso   1.000  C
  C128     1.0000 0.54780  0.67420  0.08260  Biso   1.000  C
  C129     1.0000 0.57810  0.70850  0.09430  Biso   1.000  C
  C130     1.0000 0.57020  0.73460  0.13740  Biso   1.000  C
  C131     1.0000 0.53630  0.72190  0.16510  Biso   1.000  C
  C132     1.0000 0.50910  0.68800  0.15310  Biso   1.000  C
  C133     1.0000 0.47690  0.62770  0.10350  Biso   1.000  C
  C134     1.0000 0.60420  0.77640  0.14450  Biso   1.000  C
  C135     1.0000 0.66490  0.81610  0.12490  Biso   1.000  C
  C136     1.0000 0.98770  0.33720  0.61320  Biso   1.000  C
  C137     1.0000 0.95220  0.32580  0.58260  Biso   1.000  C
  C138     1.0000 0.92190  0.29150  0.59430  Biso   1.000  C
  C139     1.0000 0.92980  0.26540  0.63740  Biso   1.000  C
  C140     1.0000 0.96370  0.27810  0.66510  Biso   1.000  C
  C141     1.0000 0.99090  0.31200  0.65310  Biso   1.000  C
  C142     1.0000 0.02310  0.37230  0.60350  Biso   1.000  C
  C143     1.0000 0.89580  0.22360  0.64450  Biso   1.000  C
  C144     1.0000 0.83510  0.18390  0.62490  Biso   1.000  C
  C145     1.0000 0.38680  0.48770  0.16280  Biso   1.000  C
  C146     1.0000 0.41740  0.45220  0.17420  Biso   1.000  C
  C147     1.0000 0.40570  0.42190  0.20850  Biso   1.000  C
  C148     1.0000 0.36260  0.42980  0.23460  Biso   1.000  C
  C149     1.0000 0.33490  0.46370  0.22190  Biso   1.000  C
  C150     1.0000 0.34690  0.49090  0.18800  Biso   1.000  C
  C151     1.0000 0.39650  0.52310  0.12770  Biso   1.000  C
  C152     1.0000 0.35550  0.39580  0.27640  Biso   1.000  C
  C153     1.0000 0.37510  0.33510  0.31610  Biso   1.000  C
  C154     1.0000 0.88680  0.01230  0.83720  Biso   1.000  C
  C155     1.0000 0.91740  0.04780  0.82580  Biso   1.000  C
  C156     1.0000 0.90570  0.07810  0.79150  Biso   1.000  C
  C157     1.0000 0.86260  0.07020  0.76540  Biso   1.000  C
  C158     1.0000 0.83490  0.03630  0.77810  Biso   1.000  C
  C159     1.0000 0.84690  0.00910  0.81200  Biso   1.000  C
  C160     1.0000 0.89650  0.97690  0.87230  Biso   1.000  C
  C161     1.0000 0.85550  0.10420  0.72360  Biso   1.000  C
  C162     1.0000 0.87510  0.16490  0.68390  Biso   1.000  C
  C163     1.0000 0.11320  0.51230  0.66280  Biso   1.000  C
  C164     1.0000 0.08260  0.54780  0.67420  Biso   1.000  C
  C165     1.0000 0.09430  0.57810  0.70850  Biso   1.000  C
  C166     1.0000 0.13740  0.57020  0.73460  Biso   1.000  C
  C167     1.0000 0.16510  0.53630  0.72190  Biso   1.000  C
  C168     1.0000 0.15310  0.50910  0.68800  Biso   1.000  C
  C169     1.0000 0.10350  0.47690  0.62770  Biso   1.000  C
  C170     1.0000 0.14450  0.60420  0.77640  Biso   1.000  C
  C171     1.0000 0.12490  0.66490  0.81610  Biso   1.000  C
  C172     1.0000 0.61320  0.98770  0.33720  Biso   1.000  C
  C173     1.0000 0.58260  0.95220  0.32580  Biso   1.000  C
  C174     1.0000 0.59430  0.92190  0.29150  Biso   1.000  C
  C175     1.0000 0.63740  0.92980  0.26540  Biso   1.000  C
  C176     1.0000 0.66510  0.96370  0.27810  Biso   1.000  C
  C177     1.0000 0.65310  0.99090  0.31200  Biso   1.000  C
  C178     1.0000 0.60350  0.02310  0.37230  Biso   1.000  C
  C179     1.0000 0.64450  0.89580  0.22360  Biso   1.000  C
  C180     1.0000 0.62490  0.83510  0.18390  Biso   1.000  C
  C181     1.0000 0.16280  0.38680  0.48770  Biso   1.000  C
  C182     1.0000 0.17420  0.41740  0.45220  Biso   1.000  C
  C183     1.0000 0.20850  0.40570  0.42190  Biso   1.000  C
  C184     1.0000 0.23460  0.36260  0.42980  Biso   1.000  C
  C185     1.0000 0.22190  0.33490  0.46370  Biso   1.000  C
  C186     1.0000 0.18800  0.34690  0.49090  Biso   1.000  C
  C187     1.0000 0.12770  0.39650  0.52310  Biso   1.000  C
  C188     1.0000 0.27640  0.35550  0.39580  Biso   1.000  C
  C189     1.0000 0.31610  0.37510  0.33510  Biso   1.000  C
  C190     1.0000 0.83720  0.88680  0.01230  Biso   1.000  C
  C191     1.0000 0.82580  0.91740  0.04780  Biso   1.000  C
  C192     1.0000 0.79150  0.90570  0.07810  Biso   1.000  C
  C193     1.0000 0.76540  0.86260  0.07020  Biso   1.000  C
  C194     1.0000 0.77810  0.83490  0.03630  Biso   1.000  C
  C195     1.0000 0.81200  0.84690  0.00910  Biso   1.000  C
  C196     1.0000 0.87230  0.89650  0.97690  Biso   1.000  C
  C197     1.0000 0.72360  0.85550  0.10420  Biso   1.000  C
  C198     1.0000 0.68390  0.87510  0.16490  Biso   1.000  C
  C199     1.0000 0.66280  0.11320  0.51230  Biso   1.000  C
  C200     1.0000 0.67420  0.08260  0.54780  Biso   1.000  C
  C201     1.0000 0.70850  0.09430  0.57810  Biso   1.000  C
  C202     1.0000 0.73460  0.13740  0.57020  Biso   1.000  C
  C203     1.0000 0.72190  0.16510  0.53630  Biso   1.000  C
  C204     1.0000 0.68800  0.15310  0.50910  Biso   1.000  C
  C205     1.0000 0.62770  0.10350  0.47690  Biso   1.000  C
  C206     1.0000 0.77640  0.14450  0.60420  Biso   1.000  C
  C207     1.0000 0.81610  0.12490  0.66490  Biso   1.000  C
  C208     1.0000 0.33720  0.61320  0.98770  Biso   1.000  C
  C209     1.0000 0.32580  0.58260  0.95220  Biso   1.000  C
  C210     1.0000 0.29150  0.59430  0.92190  Biso   1.000  C
  C211     1.0000 0.26540  0.63740  0.92980  Biso   1.000  C
  C212     1.0000 0.27810  0.66510  0.96370  Biso   1.000  C
  C213     1.0000 0.31200  0.65310  0.99090  Biso   1.000  C
  C214     1.0000 0.37230  0.60350  0.02310  Biso   1.000  C
  C215     1.0000 0.22360  0.64450  0.89580  Biso   1.000  C
  C216     1.0000 0.18390  0.62490  0.83510  Biso   1.000  C
  C217     1.0000 0.91280  0.73770  0.86320  Biso   1.000  C
  C218     1.0000 0.92420  0.70220  0.83260  Biso   1.000  C
  C219     1.0000 0.95850  0.67190  0.84430  Biso   1.000  C
  C220     1.0000 0.98460  0.67980  0.88740  Biso   1.000  C
  C221     1.0000 0.97190  0.71370  0.91510  Biso   1.000  C
  C222     1.0000 0.93800  0.74090  0.90310  Biso   1.000  C
  C223     1.0000 0.87770  0.77310  0.85350  Biso   1.000  C
  C224     1.0000 0.02640  0.64580  0.89450  Biso   1.000  C
  C225     1.0000 0.06610  0.58510  0.87490  Biso   1.000  C
  C226     1.0000 0.58720  0.26230  0.36320  Biso   1.000  C
  C227     1.0000 0.57580  0.29780  0.33260  Biso   1.000  C
  C228     1.0000 0.54150  0.32810  0.34430  Biso   1.000  C
  C229     1.0000 0.51540  0.32020  0.38740  Biso   1.000  C
  C230     1.0000 0.52810  0.28630  0.41510  Biso   1.000  C
  C231     1.0000 0.56200  0.25910  0.40310  Biso   1.000  C
  C232     1.0000 0.62230  0.22690  0.35350  Biso   1.000  C
  C233     1.0000 0.47360  0.35420  0.39450  Biso   1.000  C
  C234     1.0000 0.43390  0.41490  0.37490  Biso   1.000  C
  C235     1.0000 0.41280  0.76230  0.13680  Biso   1.000  C
  C236     1.0000 0.42420  0.79780  0.16740  Biso   1.000  C
  C237     1.0000 0.45850  0.82810  0.15570  Biso   1.000  C
  C238     1.0000 0.48460  0.82020  0.11260  Biso   1.000  C
  C239     1.0000 0.47190  0.78630  0.08490  Biso   1.000  C
  C240     1.0000 0.43800  0.75910  0.09690  Biso   1.000  C
  C241     1.0000 0.37770  0.72690  0.14650  Biso   1.000  C
  C242     1.0000 0.52640  0.85420  0.10550  Biso   1.000  C
  C243     1.0000 0.56610  0.91490  0.12510  Biso   1.000  C
  C244     1.0000 0.08720  0.23770  0.63680  Biso   1.000  C
  C245     1.0000 0.07580  0.20220  0.66740  Biso   1.000  C
  C246     1.0000 0.04150  0.17190  0.65570  Biso   1.000  C
  C247     1.0000 0.01540  0.17980  0.61260  Biso   1.000  C
  C248     1.0000 0.02810  0.21370  0.58490  Biso   1.000  C
  C249     1.0000 0.06200  0.24090  0.59690  Biso   1.000  C
  C250     1.0000 0.12230  0.27310  0.64650  Biso   1.000  C
  C251     1.0000 0.97360  0.14580  0.60550  Biso   1.000  C
  C252     1.0000 0.93390  0.08510  0.62510  Biso   1.000  C
  C253     1.0000 0.23770  0.63680  0.08720  Biso   1.000  C
  C254     1.0000 0.20220  0.66740  0.07580  Biso   1.000  C
  C255     1.0000 0.17190  0.65570  0.04150  Biso   1.000  C
  C256     1.0000 0.17980  0.61260  0.01540  Biso   1.000  C
  C257     1.0000 0.21370  0.58490  0.02810  Biso   1.000  C
  C258     1.0000 0.24090  0.59690  0.06200  Biso   1.000  C
  C259     1.0000 0.27310  0.64650  0.12230  Biso   1.000  C
  C260     1.0000 0.14580  0.60550  0.97360  Biso   1.000  C
  C261     1.0000 0.08510  0.62510  0.93390  Biso   1.000  C
  C262     1.0000 0.76230  0.13680  0.41280  Biso   1.000  C
  C263     1.0000 0.79780  0.16740  0.42420  Biso   1.000  C
  C264     1.0000 0.82810  0.15570  0.45850  Biso   1.000  C
  C265     1.0000 0.82020  0.11260  0.48460  Biso   1.000  C
  C266     1.0000 0.78630  0.08490  0.47190  Biso   1.000  C
  C267     1.0000 0.75910  0.09690  0.43800  Biso   1.000  C
  C268     1.0000 0.72690  0.14650  0.37770  Biso   1.000  C
  C269     1.0000 0.85420  0.10550  0.52640  Biso   1.000  C
  C270     1.0000 0.91490  0.12510  0.56610  Biso   1.000  C
  C271     1.0000 0.26230  0.36320  0.58720  Biso   1.000  C
  C272     1.0000 0.29780  0.33260  0.57580  Biso   1.000  C
  C273     1.0000 0.32810  0.34430  0.54150  Biso   1.000  C
  C274     1.0000 0.32020  0.38740  0.51540  Biso   1.000  C
  C275     1.0000 0.28630  0.41510  0.52810  Biso   1.000  C
  C276     1.0000 0.25910  0.40310  0.56200  Biso   1.000  C
  C277     1.0000 0.22690  0.35350  0.62230  Biso   1.000  C
  C278     1.0000 0.35420  0.39450  0.47360  Biso   1.000  C
  C279     1.0000 0.41490  0.37490  0.43390  Biso   1.000  C
  C280     1.0000 0.73770  0.86320  0.91280  Biso   1.000  C
  C281     1.0000 0.70220  0.83260  0.92420  Biso   1.000  C
  C282     1.0000 0.67190  0.84430  0.95850  Biso   1.000  C
  C283     1.0000 0.67980  0.88740  0.98460  Biso   1.000  C
  C284     1.0000 0.71370  0.91510  0.97190  Biso   1.000  C
  C285     1.0000 0.74090  0.90310  0.93800  Biso   1.000  C
  C286     1.0000 0.77310  0.85350  0.87770  Biso   1.000  C
  C287     1.0000 0.64580  0.89450  0.02640  Biso   1.000  C
  C288     1.0000 0.58510  0.87490  0.06610  Biso   1.000  C
  C289     1.0000 0.13680  0.41280  0.76230  Biso   1.000  C
  C290     1.0000 0.16740  0.42420  0.79780  Biso   1.000  C
  C291     1.0000 0.15570  0.45850  0.82810  Biso   1.000  C
  C292     1.0000 0.11260  0.48460  0.82020  Biso   1.000  C
  C293     1.0000 0.08490  0.47190  0.78630  Biso   1.000  C
  C294     1.0000 0.09690  0.43800  0.75910  Biso   1.000  C
  C295     1.0000 0.14650  0.37770  0.72690  Biso   1.000  C
  C296     1.0000 0.10550  0.52640  0.85420  Biso   1.000  C
  C297     1.0000 0.12510  0.56610  0.91490  Biso   1.000  C
  C298     1.0000 0.63680  0.08720  0.23770  Biso   1.000  C
  C299     1.0000 0.66740  0.07580  0.20220  Biso   1.000  C
  C300     1.0000 0.65570  0.04150  0.17190  Biso   1.000  C
  C301     1.0000 0.61260  0.01540  0.17980  Biso   1.000  C
  C302     1.0000 0.58490  0.02810  0.21370  Biso   1.000  C
  C303     1.0000 0.59690  0.06200  0.24090  Biso   1.000  C
  C304     1.0000 0.64650  0.12230  0.27310  Biso   1.000  C
  C305     1.0000 0.60550  0.97360  0.14580  Biso   1.000  C
  C306     1.0000 0.62510  0.93390  0.08510  Biso   1.000  C
  C307     1.0000 0.86320  0.91280  0.73770  Biso   1.000  C
  C308     1.0000 0.83260  0.92420  0.70220  Biso   1.000  C
  C309     1.0000 0.84430  0.95850  0.67190  Biso   1.000  C
  C310     1.0000 0.88740  0.98460  0.67980  Biso   1.000  C
  C311     1.0000 0.91510  0.97190  0.71370  Biso   1.000  C
  C312     1.0000 0.90310  0.93800  0.74090  Biso   1.000  C
  C313     1.0000 0.85350  0.87770  0.77310  Biso   1.000  C
  C314     1.0000 0.89450  0.02640  0.64580  Biso   1.000  C
  C315     1.0000 0.87490  0.06610  0.58510  Biso   1.000  C
  C316     1.0000 0.36320  0.58720  0.26230  Biso   1.000  C
  C317     1.0000 0.33260  0.57580  0.29780  Biso   1.000  C
  C318     1.0000 0.34430  0.54150  0.32810  Biso   1.000  C
  C319     1.0000 0.38740  0.51540  0.32020  Biso   1.000  C
  C320     1.0000 0.41510  0.52810  0.28630  Biso   1.000  C
  C321     1.0000 0.40310  0.56200  0.25910  Biso   1.000  C
  C322     1.0000 0.35350  0.62230  0.22690  Biso   1.000  C
  C323     1.0000 0.39450  0.47360  0.35420  Biso   1.000  C
  C324     1.0000 0.37490  0.43390  0.41490  Biso   1.000  C
  C325     1.0000 0.36150  0.27950  0.38570  Biso   1.000  C
  C326     1.0000 0.40539  0.30020  0.32040  Biso   1.000  C
  C327     1.0000 0.13850  0.72050  0.88570  Biso   1.000  C
  C328     1.0000 0.09461  0.69980  0.82040  Biso   1.000  C
  C329     1.0000 0.63850  0.77950  0.11430  Biso   1.000  C
  C330     1.0000 0.59461  0.80020  0.17960  Biso   1.000  C
  C331     1.0000 0.86150  0.22050  0.61430  Biso   1.000  C
  C332     1.0000 0.90539  0.19980  0.67960  Biso   1.000  C
  C333     1.0000 0.38570  0.36150  0.27950  Biso   1.000  C
  C334     1.0000 0.32040  0.40539  0.30020  Biso   1.000  C
  C335     1.0000 0.88570  0.13850  0.72050  Biso   1.000  C
  C336     1.0000 0.82040  0.09461  0.69980  Biso   1.000  C
  C337     1.0000 0.11430  0.63850  0.77950  Biso   1.000  C
  C338     1.0000 0.17960  0.59461  0.80020  Biso   1.000  C
  C339     1.0000 0.61430  0.86150  0.22050  Biso   1.000  C
  C340     1.0000 0.67960  0.90539  0.19980  Biso   1.000  C
  C341     1.0000 0.27950  0.38570  0.36150  Biso   1.000  C
  C342     1.0000 0.30020  0.32040  0.40539  Biso   1.000  C
  C343     1.0000 0.72050  0.88570  0.13850  Biso   1.000  C
  C344     1.0000 0.69980  0.82040  0.09461  Biso   1.000  C
  C345     1.0000 0.77950  0.11430  0.63850  Biso   1.000  C
  C346     1.0000 0.80020  0.17960  0.59461  Biso   1.000  C
  C347     1.0000 0.22050  0.61430  0.86150  Biso   1.000  C
  C348     1.0000 0.19980  0.67960  0.90539  Biso   1.000  C
  C349     1.0000 0.02950  0.61150  0.86430  Biso   1.000  C
  C350     1.0000 0.05020  0.65539  0.92960  Biso   1.000  C
  C351     1.0000 0.47050  0.38850  0.36430  Biso   1.000  C
  C352     1.0000 0.44980  0.34461  0.42960  Biso   1.000  C
  C353     1.0000 0.52950  0.88850  0.13570  Biso   1.000  C
  C354     1.0000 0.55020  0.84461  0.07040  Biso   1.000  C
  C355     1.0000 0.97050  0.11150  0.63570  Biso   1.000  C
  C356     1.0000 0.94980  0.15539  0.57040  Biso   1.000  C
  C357     1.0000 0.11150  0.63570  0.97050  Biso   1.000  C
  C358     1.0000 0.15539  0.57040  0.94980  Biso   1.000  C
  C359     1.0000 0.88850  0.13570  0.52950  Biso   1.000  C
  C360     1.0000 0.84461  0.07040  0.55020  Biso   1.000  C
  C361     1.0000 0.38850  0.36430  0.47050  Biso   1.000  C
  C362     1.0000 0.34461  0.42960  0.44980  Biso   1.000  C
  C363     1.0000 0.61150  0.86430  0.02950  Biso   1.000  C
  C364     1.0000 0.65539  0.92960  0.05020  Biso   1.000  C
  C365     1.0000 0.13570  0.52950  0.88850  Biso   1.000  C
  C366     1.0000 0.07040  0.55020  0.84461  Biso   1.000  C
  C367     1.0000 0.63570  0.97050  0.11150  Biso   1.000  C
  C368     1.0000 0.57040  0.94980  0.15539  Biso   1.000  C
  C369     1.0000 0.86430  0.02950  0.61150  Biso   1.000  C
  C370     1.0000 0.92960  0.05020  0.65539  Biso   1.000  C
  C371     1.0000 0.36430  0.47050  0.38850  Biso   1.000  C
  C372     1.0000 0.42960  0.44980  0.34461  Biso   1.000  C
  C373     1.0000 0.34243  0.34243  0.34243  Biso   1.000  C
  C374     1.0000 0.15757  0.65757  0.84243  Biso   1.000  C
  C375     1.0000 0.65757  0.84243  0.15757  Biso   1.000  C
  C376     1.0000 0.84243  0.15757  0.65757  Biso   1.000  C
  C377     1.0000 0.09243  0.59243  0.90757  Biso   1.000  C
  C378     1.0000 0.40757  0.40757  0.40757  Biso   1.000  C
  C379     1.0000 0.59243  0.90757  0.09243  Biso   1.000  C
  C380     1.0000 0.90757  0.09243  0.59243  Biso   1.000  C
  C381     1.0000 0.51573  0.10394  0.43113  Biso   1.000  C
  C382     1.0000 0.56235  0.12618  0.37087  Biso   1.000  C
  C383     1.0000 0.98427  0.89606  0.93113  Biso   1.000  C
  C384     1.0000 0.93765  0.87382  0.87087  Biso   1.000  C
  C385     1.0000 0.48427  0.60394  0.06887  Biso   1.000  C
  C386     1.0000 0.43765  0.62618  0.12913  Biso   1.000  C
  C387     1.0000 0.01573  0.39606  0.56887  Biso   1.000  C
  C388     1.0000 0.06235  0.37382  0.62913  Biso   1.000  C
  C389     1.0000 0.43113  0.51573  0.10394  Biso   1.000  C
  C390     1.0000 0.37087  0.56235  0.12618  Biso   1.000  C
  C391     1.0000 0.93113  0.98427  0.89606  Biso   1.000  C
  C392     1.0000 0.87087  0.93765  0.87382  Biso   1.000  C
  C393     1.0000 0.06887  0.48427  0.60394  Biso   1.000  C
  C394     1.0000 0.12913  0.43765  0.62618  Biso   1.000  C
  C395     1.0000 0.56887  0.01573  0.39606  Biso   1.000  C
  C396     1.0000 0.62913  0.06235  0.37382  Biso   1.000  C
  C397     1.0000 0.10394  0.43113  0.51573  Biso   1.000  C
  C398     1.0000 0.12618  0.37087  0.56235  Biso   1.000  C
  C399     1.0000 0.89606  0.93113  0.98427  Biso   1.000  C
  C400     1.0000 0.87382  0.87087  0.93765  Biso   1.000  C
  C401     1.0000 0.60394  0.06887  0.48427  Biso   1.000  C
  C402     1.0000 0.62618  0.12913  0.43765  Biso   1.000  C
  C403     1.0000 0.39606  0.56887  0.01573  Biso   1.000  C
  C404     1.0000 0.37382  0.62913  0.06235  Biso   1.000  C
  C405     1.0000 0.85394  0.76573  0.81887  Biso   1.000  C
  C406     1.0000 0.87618  0.81235  0.87913  Biso   1.000  C
  C407     1.0000 0.64606  0.23427  0.31887  Biso   1.000  C
  C408     1.0000 0.62382  0.18765  0.37913  Biso   1.000  C
  C409     1.0000 0.35394  0.73427  0.18113  Biso   1.000  C
  C410     1.0000 0.37618  0.68765  0.12087  Biso   1.000  C
  C411     1.0000 0.14606  0.26573  0.68113  Biso   1.000  C
  C412     1.0000 0.12382  0.31235  0.62087  Biso   1.000  C
  C413     1.0000 0.26573  0.68113  0.14606  Biso   1.000  C
  C414     1.0000 0.31235  0.62087  0.12382  Biso   1.000  C
  C415     1.0000 0.73427  0.18113  0.35394  Biso   1.000  C
  C416     1.0000 0.68765  0.12087  0.37618  Biso   1.000  C
  C417     1.0000 0.23427  0.31887  0.64606  Biso   1.000  C
  C418     1.0000 0.18765  0.37913  0.62382  Biso   1.000  C
  C419     1.0000 0.76573  0.81887  0.85394  Biso   1.000  C
  C420     1.0000 0.81235  0.87913  0.87618  Biso   1.000  C
  C421     1.0000 0.18113  0.35394  0.73427  Biso   1.000  C
  C422     1.0000 0.12087  0.37618  0.68765  Biso   1.000  C
  C423     1.0000 0.68113  0.14606  0.26573  Biso   1.000  C
  C424     1.0000 0.62087  0.12382  0.31235  Biso   1.000  C
  C425     1.0000 0.81887  0.85394  0.76573  Biso   1.000  C
  C426     1.0000 0.87913  0.87618  0.81235  Biso   1.000  C
  C427     1.0000 0.31887  0.64606  0.23427  Biso   1.000  C
  C428     1.0000 0.37913  0.62382  0.18765  Biso   1.000  C
  O1       1.0000 0.20341  0.67804  0.30512  Biso   1.000  O
  O2       1.0000 0.70341  0.78816  0.69500  Biso   1.000  O
  O3       1.0000 0.81353  0.17804  0.19500  Biso   1.000  O
  O4       1.0000 0.31353  0.28815  0.80512  Biso   1.000  O
  O5       1.0000 0.56353  0.92803  0.55512  Biso   1.000  O
  O6       1.0000 0.06353  0.53816  0.44500  Biso   1.000  O
  O7       1.0000 0.95341  0.03816  0.05512  Biso   1.000  O
  O8       1.0000 0.45341  0.42804  0.94500  Biso   1.000  O
  O9       1.0000 0.13347  0.60810  0.37506  Biso   1.000  O
  O10      1.0000 0.63347  0.85810  0.62506  Biso   1.000  O
  O11      1.0000 0.88347  0.10810  0.12506  Biso   1.000  O
  O12      1.0000 0.38347  0.35810  0.87506  Biso   1.000  O
  O13      1.0000 0.20337  0.57410  0.19936  Biso   1.000  O
  O14      1.0000 0.18257  0.51800  0.14726  Biso   1.000  O
  O15      1.0000 0.06587  0.49650  0.21806  Biso   1.000  O
  O16      1.0000 0.08547  0.55260  0.26416  Biso   1.000  O
  O17      1.0000 0.70337  0.89210  0.80076  Biso   1.000  O
  O18      1.0000 0.68257  0.94820  0.85286  Biso   1.000  O
  O19      1.0000 0.56587  0.96969  0.78206  Biso   1.000  O
  O20      1.0000 0.58547  0.91359  0.73596  Biso   1.000  O
  O21      1.0000 0.81357  0.07410  0.30076  Biso   1.000  O
  O22      1.0000 0.83437  0.01800  0.35286  Biso   1.000  O
  O23      1.0000 0.95107  0.99650  0.28206  Biso   1.000  O
  O24      1.0000 0.93147  0.05260  0.23596  Biso   1.000  O
  O25      1.0000 0.31357  0.39210  0.69936  Biso   1.000  O
  O26      1.0000 0.33437  0.44820  0.64726  Biso   1.000  O
  O27      1.0000 0.45107  0.46970  0.71806  Biso   1.000  O
  O28      1.0000 0.43147  0.41359  0.76416  Biso   1.000  O
  O29      1.0000 0.91747  0.28380  0.19496  Biso   1.000  O
  O30      1.0000 0.97357  0.33590  0.17416  Biso   1.000  O
  O31      1.0000 0.99507  0.26510  0.05746  Biso   1.000  O
  O32      1.0000 0.93897  0.21900  0.07706  Biso   1.000  O
  O33      1.0000 0.59947  0.68240  0.69496  Biso   1.000  O
  O34      1.0000 0.54337  0.63030  0.67416  Biso   1.000  O
  O35      1.0000 0.52187  0.70110  0.55746  Biso   1.000  O
  O36      1.0000 0.57797  0.74720  0.57706  Biso   1.000  O
  O37      1.0000 0.41747  0.18240  0.80516  Biso   1.000  O
  O38      1.0000 0.47357  0.13029  0.82596  Biso   1.000  O
  O39      1.0000 0.49507  0.20110  0.94266  Biso   1.000  O
  O40      1.0000 0.43897  0.24720  0.92306  Biso   1.000  O
  O41      1.0000 0.09947  0.78380  0.30516  Biso   1.000  O
  O42      1.0000 0.04337  0.83590  0.32596  Biso   1.000  O
  O43      1.0000 0.02187  0.76510  0.44266  Biso   1.000  O
  O44      1.0000 0.07797  0.71900  0.42306  Biso   1.000  O
  O45      1.0000 0.20777  0.28820  0.90906  Biso   1.000  O
  O46      1.0000 0.15567  0.30900  0.96516  Biso   1.000  O
  O47      1.0000 0.22647  0.42570  0.98666  Biso   1.000  O
  O48      1.0000 0.27257  0.40609  0.93056  Biso   1.000  O
  O49      1.0000 0.80917  0.78820  0.59106  Biso   1.000  O
  O50      1.0000 0.86127  0.80900  0.53496  Biso   1.000  O
  O51      1.0000 0.79047  0.92570  0.51346  Biso   1.000  O
  O52      1.0000 0.74437  0.90609  0.56956  Biso   1.000  O
  O53      1.0000 0.30917  0.67800  0.40906  Biso   1.000  O
  O54      1.0000 0.36127  0.65720  0.46516  Biso   1.000  O
  O55      1.0000 0.29047  0.54050  0.48666  Biso   1.000  O
  O56      1.0000 0.24437  0.56010  0.43056  Biso   1.000  O
  O57      1.0000 0.70777  0.17799  0.09106  Biso   1.000  O
  O58      1.0000 0.65567  0.15719  0.03496  Biso   1.000  O
  O59      1.0000 0.72647  0.04049  0.01346  Biso   1.000  O
  O60      1.0000 0.77257  0.06010  0.06956  Biso   1.000  O
  O61      1.0000 0.56357  0.03379  0.65906  Biso   1.000  O
  O62      1.0000 0.58437  0.08589  0.71516  Biso   1.000  O
  O63      1.0000 0.70107  0.01509  0.73666  Biso   1.000  O
  O64      1.0000 0.68147  0.96899  0.68056  Biso   1.000  O
  O65      1.0000 0.06357  0.43240  0.34106  Biso   1.000  O
  O66      1.0000 0.08437  0.38030  0.28496  Biso   1.000  O
  O67      1.0000 0.20107  0.45110  0.26346  Biso   1.000  O
  O68      1.0000 0.18147  0.49720  0.31956  Biso   1.000  O
  O69      1.0000 0.95337  0.93240  0.15906  Biso   1.000  O
  O70      1.0000 0.93257  0.88030  0.21516  Biso   1.000  O
  O71      1.0000 0.81587  0.95110  0.23666  Biso   1.000  O
  O72      1.0000 0.83547  0.99720  0.18056  Biso   1.000  O
  O73      1.0000 0.45337  0.53380  0.84106  Biso   1.000  O
  O74      1.0000 0.43257  0.58590  0.78496  Biso   1.000  O
  O75      1.0000 0.31587  0.51510  0.76346  Biso   1.000  O
  O76      1.0000 0.33547  0.46900  0.81956  Biso   1.000  O
  O77      1.0000 0.84947  0.03820  0.94936  Biso   1.000  O
  O78      1.0000 0.79337  0.05900  0.89726  Biso   1.000  O
  O79      1.0000 0.77187  0.17570  0.96806  Biso   1.000  O
  O80      1.0000 0.82797  0.15610  0.01416  Biso   1.000  O
  O81      1.0000 0.16747  0.53820  0.55076  Biso   1.000  O
  O82      1.0000 0.22357  0.55900  0.60286  Biso   1.000  O
  O83      1.0000 0.24507  0.67570  0.53206  Biso   1.000  O
  O84      1.0000 0.18897  0.65610  0.48596  Biso   1.000  O
  O85      1.0000 0.34947  0.42800  0.05076  Biso   1.000  O
  O86      1.0000 0.29337  0.40720  0.10286  Biso   1.000  O
  O87      1.0000 0.27187  0.29050  0.03206  Biso   1.000  O
  O88      1.0000 0.32797  0.31010  0.98596  Biso   1.000  O
  O89      1.0000 0.66747  0.92799  0.44936  Biso   1.000  O
  O90      1.0000 0.72357  0.90720  0.39726  Biso   1.000  O
  O91      1.0000 0.74507  0.79049  0.46806  Biso   1.000  O
  O92      1.0000 0.68897  0.81009  0.51416  Biso   1.000  O
  O93      1.0000 0.55917  0.32410  0.94496  Biso   1.000  O
  O94      1.0000 0.61127  0.26799  0.92416  Biso   1.000  O
  O95      1.0000 0.54047  0.24650  0.80746  Biso   1.000  O
  O96      1.0000 0.49437  0.30259  0.82706  Biso   1.000  O
  O97      1.0000 0.95777  0.64210  0.44496  Biso   1.000  O
  O98      1.0000 0.90567  0.69820  0.42416  Biso   1.000  O
  O99      1.0000 0.97647  0.71970  0.30746  Biso   1.000  O
  O100     1.0000 0.02257  0.66360  0.32706  Biso   1.000  O
  O101     1.0000 0.45777  0.82410  0.55516  Biso   1.000  O
  O102     1.0000 0.40567  0.76800  0.57596  Biso   1.000  O
  O103     1.0000 0.47647  0.74650  0.69266  Biso   1.000  O
  O104     1.0000 0.52257  0.80259  0.67306  Biso   1.000  O
  O105     1.0000 0.05917  0.14210  0.05516  Biso   1.000  O
  O106     1.0000 0.11127  0.19820  0.07596  Biso   1.000  O
  O107     1.0000 0.04047  0.21970  0.19266  Biso   1.000  O
  O108     1.0000 0.99437  0.16360  0.17306  Biso   1.000  O
  O109     1.0000 0.14527  0.57030  0.23776  Biso   1.000  O
  O110     1.0000 0.17587  0.55890  0.20226  Biso   1.000  O
  O111     1.0000 0.16417  0.52460  0.17196  Biso   1.000  O
  O112     1.0000 0.12107  0.49850  0.17986  Biso   1.000  O
  O113     1.0000 0.09337  0.51120  0.21376  Biso   1.000  O
  O114     1.0000 0.10537  0.54510  0.24096  Biso   1.000  O
  O115     1.0000 0.15497  0.60540  0.27316  Biso   1.000  O
  O116     1.0000 0.11397  0.45670  0.14586  Biso   1.000  O
  O117     1.0000 0.13357  0.41700  0.08516  Biso   1.000  O
  O118     1.0000 0.64527  0.89589  0.76236  Biso   1.000  O
  O119     1.0000 0.67587  0.90729  0.79786  Biso   1.000  O
  O120     1.0000 0.66417  0.94159  0.82816  Biso   1.000  O
  O121     1.0000 0.62107  0.96769  0.82026  Biso   1.000  O
  O122     1.0000 0.59337  0.95500  0.78636  Biso   1.000  O
  O123     1.0000 0.60537  0.92109  0.75916  Biso   1.000  O
  O124     1.0000 0.65497  0.86080  0.72696  Biso   1.000  O
  O125     1.0000 0.61397  0.00949  0.85426  Biso   1.000  O
  O126     1.0000 0.63357  0.04919  0.91496  Biso   1.000  O
  O127     1.0000 0.87167  0.07030  0.26236  Biso   1.000  O
  O128     1.0000 0.84107  0.05890  0.29786  Biso   1.000  O
  O129     1.0000 0.85277  0.02460  0.32816  Biso   1.000  O
  O130     1.0000 0.89587  0.99850  0.32026  Biso   1.000  O
  O131     1.0000 0.92357  0.01120  0.28636  Biso   1.000  O
  O132     1.0000 0.91157  0.04510  0.25916  Biso   1.000  O
  O133     1.0000 0.86197  0.10540  0.22696  Biso   1.000  O
  O134     1.0000 0.90297  0.95670  0.35426  Biso   1.000  O
  O135     1.0000 0.88337  0.91700  0.41496  Biso   1.000  O
  O136     1.0000 0.37167  0.39590  0.73776  Biso   1.000  O
  O137     1.0000 0.34107  0.40729  0.70226  Biso   1.000  O
  O138     1.0000 0.35277  0.44160  0.67196  Biso   1.000  O
  O139     1.0000 0.39587  0.46770  0.67986  Biso   1.000  O
  O140     1.0000 0.42357  0.45500  0.71376  Biso   1.000  O
  O141     1.0000 0.41157  0.42110  0.74096  Biso   1.000  O
  O142     1.0000 0.36197  0.36079  0.77316  Biso   1.000  O
  O143     1.0000 0.40297  0.50950  0.64586  Biso   1.000  O
  O144     1.0000 0.38337  0.54920  0.58516  Biso   1.000  O
  O145     1.0000 0.92127  0.24540  0.13686  Biso   1.000  O
  O146     1.0000 0.93267  0.28090  0.16746  Biso   1.000  O
  O147     1.0000 0.96697  0.31120  0.15576  Biso   1.000  O
  O148     1.0000 0.99307  0.30330  0.11266  Biso   1.000  O
  O149     1.0000 0.98037  0.26940  0.08496  Biso   1.000  O
  O150     1.0000 0.94647  0.24220  0.09696  Biso   1.000  O
  O151     1.0000 0.88617  0.21000  0.14656  Biso   1.000  O
  O152     1.0000 0.03487  0.33730  0.10556  Biso   1.000  O
  O153     1.0000 0.07457  0.39800  0.12516  Biso   1.000  O
  O154     1.0000 0.59567  0.72080  0.63686  Biso   1.000  O
  O155     1.0000 0.58427  0.68530  0.66746  Biso   1.000  O
  O156     1.0000 0.54997  0.65500  0.65576  Biso   1.000  O
  O157     1.0000 0.52387  0.66290  0.61266  Biso   1.000  O
  O158     1.0000 0.53657  0.69680  0.58496  Biso   1.000  O
  O159     1.0000 0.57047  0.72400  0.59696  Biso   1.000  O
  O160     1.0000 0.63077  0.75619  0.64656  Biso   1.000  O
  O161     1.0000 0.48207  0.62890  0.60556  Biso   1.000  O
  O162     1.0000 0.44237  0.56820  0.62516  Biso   1.000  O
  O163     1.0000 0.42127  0.22080  0.86326  Biso   1.000  O
  O164     1.0000 0.43267  0.18530  0.83266  Biso   1.000  O
  O165     1.0000 0.46697  0.15499  0.84436  Biso   1.000  O
  O166     1.0000 0.49307  0.16290  0.88746  Biso   1.000  O
  O167     1.0000 0.48037  0.19679  0.91516  Biso   1.000  O
  O168     1.0000 0.44647  0.22400  0.90316  Biso   1.000  O
  O169     1.0000 0.38617  0.25619  0.85356  Biso   1.000  O
  O170     1.0000 0.53487  0.12889  0.89456  Biso   1.000  O
  O171     1.0000 0.57457  0.06819  0.87496  Biso   1.000  O
  O172     1.0000 0.09567  0.74540  0.36326  Biso   1.000  O
  O173     1.0000 0.08427  0.78090  0.33266  Biso   1.000  O
  O174     1.0000 0.04997  0.81120  0.34436  Biso   1.000  O
  O175     1.0000 0.02387  0.80330  0.38746  Biso   1.000  O
  O176     1.0000 0.03657  0.76940  0.41516  Biso   1.000  O
  O177     1.0000 0.07047  0.74220  0.40316  Biso   1.000  O
  O178     1.0000 0.13077  0.71000  0.35356  Biso   1.000  O
  O179     1.0000 0.98207  0.83730  0.39456  Biso   1.000  O
  O180     1.0000 0.94237  0.89800  0.37496  Biso   1.000  O
  O181     1.0000 0.24617  0.34630  0.91286  Biso   1.000  O
  O182     1.0000 0.21067  0.31570  0.92426  Biso   1.000  O
  O183     1.0000 0.18037  0.32740  0.95856  Biso   1.000  O
  O184     1.0000 0.18827  0.37050  0.98466  Biso   1.000  O
  O185     1.0000 0.22217  0.39820  0.97196  Biso   1.000  O
  O186     1.0000 0.24937  0.38619  0.93806  Biso   1.000  O
  O187     1.0000 0.28157  0.33660  0.87776  Biso   1.000  O
  O188     1.0000 0.15427  0.37760  0.02646  Biso   1.000  O
  O189     1.0000 0.09357  0.35800  0.06616  Biso   1.000  O
  O190     1.0000 0.77077  0.84630  0.58726  Biso   1.000  O
  O191     1.0000 0.80627  0.81570  0.57586  Biso   1.000  O
  O192     1.0000 0.83657  0.82740  0.54156  Biso   1.000  O
  O193     1.0000 0.82867  0.87050  0.51546  Biso   1.000  O
  O194     1.0000 0.79477  0.89820  0.52816  Biso   1.000  O
  O195     1.0000 0.76757  0.88620  0.56206  Biso   1.000  O
  O196     1.0000 0.73537  0.83660  0.62236  Biso   1.000  O
  O197     1.0000 0.86267  0.87760  0.47366  Biso   1.000  O
  O198     1.0000 0.92337  0.85800  0.43396  Biso   1.000  O
  O199     1.0000 0.27077  0.61990  0.41286  Biso   1.000  O
  O200     1.0000 0.30627  0.65050  0.42426  Biso   1.000  O
  O201     1.0000 0.33657  0.63880  0.45856  Biso   1.000  O
  O202     1.0000 0.32867  0.59570  0.48466  Biso   1.000  O
  O203     1.0000 0.29477  0.56800  0.47196  Biso   1.000  O
  O204     1.0000 0.26757  0.58000  0.43806  Biso   1.000  O
  O205     1.0000 0.23537  0.62960  0.37776  Biso   1.000  O
  O206     1.0000 0.36267  0.58860  0.52646  Biso   1.000  O
  O207     1.0000 0.42337  0.60820  0.56616  Biso   1.000  O
  O208     1.0000 0.74617  0.11989  0.08726  Biso   1.000  O
  O209     1.0000 0.71067  0.15049  0.07586  Biso   1.000  O
  O210     1.0000 0.68037  0.13879  0.04156  Biso   1.000  O
  O211     1.0000 0.68827  0.09569  0.01546  Biso   1.000  O
  O212     1.0000 0.72217  0.06799  0.02816  Biso   1.000  O
  O213     1.0000 0.74937  0.07999  0.06206  Biso   1.000  O
  O214     1.0000 0.78157  0.12960  0.12236  Biso   1.000  O
  O215     1.0000 0.65427  0.08859  0.97366  Biso   1.000  O
  O216     1.0000 0.59357  0.10819  0.93396  Biso   1.000  O
  O217     1.0000 0.62167  0.99539  0.66286  Biso   1.000  O
  O218     1.0000 0.59107  0.03089  0.67426  Biso   1.000  O
  O219     1.0000 0.60277  0.06119  0.70856  Biso   1.000  O
  O220     1.0000 0.64587  0.05329  0.73466  Biso   1.000  O
  O221     1.0000 0.67357  0.01939  0.72196  Biso   1.000  O
  O222     1.0000 0.66157  0.99219  0.68806  Biso   1.000  O
  O223     1.0000 0.61197  0.96000  0.62776  Biso   1.000  O
  O224     1.0000 0.65297  0.08729  0.77646  Biso   1.000  O
  O225     1.0000 0.63337  0.14799  0.81616  Biso   1.000  O
  O226     1.0000 0.12167  0.47080  0.33726  Biso   1.000  O
  O227     1.0000 0.09107  0.43530  0.32586  Biso   1.000  O
  O228     1.0000 0.10277  0.40500  0.29156  Biso   1.000  O
  O229     1.0000 0.14587  0.41290  0.26546  Biso   1.000  O
  O230     1.0000 0.17357  0.44680  0.27816  Biso   1.000  O
  O231     1.0000 0.16157  0.47400  0.31206  Biso   1.000  O
  O232     1.0000 0.11197  0.50620  0.37236  Biso   1.000  O
  O233     1.0000 0.15297  0.37890  0.22366  Biso   1.000  O
  O234     1.0000 0.13337  0.31820  0.18396  Biso   1.000  O
  O235     1.0000 0.89527  0.97080  0.16286  Biso   1.000  O
  O236     1.0000 0.92587  0.93530  0.17426  Biso   1.000  O
  O237     1.0000 0.91417  0.90500  0.20856  Biso   1.000  O
  O238     1.0000 0.87107  0.91290  0.23466  Biso   1.000  O
  O239     1.0000 0.84337  0.94680  0.22196  Biso   1.000  O
  O240     1.0000 0.85537  0.97400  0.18806  Biso   1.000  O
  O241     1.0000 0.90497  0.00620  0.12776  Biso   1.000  O
  O242     1.0000 0.86397  0.87890  0.27646  Biso   1.000  O
  O243     1.0000 0.88357  0.81820  0.31616  Biso   1.000  O
  O244     1.0000 0.39527  0.49540  0.83726  Biso   1.000  O
  O245     1.0000 0.42587  0.53090  0.82586  Biso   1.000  O
  O246     1.0000 0.41417  0.56120  0.79156  Biso   1.000  O
  O247     1.0000 0.37107  0.55330  0.76546  Biso   1.000  O
  O248     1.0000 0.34337  0.51940  0.77816  Biso   1.000  O
  O249     1.0000 0.35537  0.49220  0.81206  Biso   1.000  O
  O250     1.0000 0.40497  0.46000  0.87236  Biso   1.000  O
  O251     1.0000 0.36397  0.58730  0.72366  Biso   1.000  O
  O252     1.0000 0.38357  0.64800  0.68396  Biso   1.000  O
  O253     1.0000 0.84567  0.09630  0.98776  Biso   1.000  O
  O254     1.0000 0.83427  0.06570  0.95226  Biso   1.000  O
  O255     1.0000 0.79997  0.07740  0.92196  Biso   1.000  O
  O256     1.0000 0.77387  0.12050  0.92986  Biso   1.000  O
  O257     1.0000 0.78657  0.14820  0.96376  Biso   1.000  O
  O258     1.0000 0.82047  0.13620  0.99096  Biso   1.000  O
  O259     1.0000 0.88077  0.08660  0.02316  Biso   1.000  O
  O260     1.0000 0.73207  0.12759  0.89586  Biso   1.000  O
  O261     1.0000 0.69237  0.10799  0.83516  Biso   1.000  O
  O262     1.0000 0.17127  0.59630  0.51236  Biso   1.000  O
  O263     1.0000 0.18267  0.56570  0.54786  Biso   1.000  O
  O264     1.0000 0.21697  0.57740  0.57816  Biso   1.000  O
  O265     1.0000 0.24307  0.62050  0.57026  Biso   1.000  O
  O266     1.0000 0.23037  0.64820  0.53636  Biso   1.000  O
  O267     1.0000 0.19647  0.63620  0.50916  Biso   1.000  O
  O268     1.0000 0.13617  0.58660  0.47696  Biso   1.000  O
  O269     1.0000 0.28487  0.62760  0.60426  Biso   1.000  O
  O270     1.0000 0.32457  0.60800  0.66496  Biso   1.000  O
  O271     1.0000 0.34567  0.36990  0.01236  Biso   1.000  O
  O272     1.0000 0.33427  0.40050  0.04786  Biso   1.000  O
  O273     1.0000 0.29997  0.38880  0.07816  Biso   1.000  O
  O274     1.0000 0.27387  0.34570  0.07026  Biso   1.000  O
  O275     1.0000 0.28657  0.31800  0.03636  Biso   1.000  O
  O276     1.0000 0.32047  0.33000  0.00916  Biso   1.000  O
  O277     1.0000 0.38077  0.37960  0.97696  Biso   1.000  O
  O278     1.0000 0.23207  0.33860  0.10426  Biso   1.000  O
  O279     1.0000 0.19237  0.35820  0.16496  Biso   1.000  O
  O280     1.0000 0.67127  0.86989  0.48776  Biso   1.000  O
  O281     1.0000 0.68267  0.90049  0.45226  Biso   1.000  O
  O282     1.0000 0.71697  0.88879  0.42196  Biso   1.000  O
  O283     1.0000 0.74307  0.84569  0.42986  Biso   1.000  O
  O284     1.0000 0.73037  0.81799  0.46376  Biso   1.000  O
  O285     1.0000 0.69647  0.83000  0.49096  Biso   1.000  O
  O286     1.0000 0.63617  0.87959  0.52316  Biso   1.000  O
  O287     1.0000 0.78487  0.83860  0.39586  Biso   1.000  O
  O288     1.0000 0.82457  0.85820  0.33516  Biso   1.000  O
  O289     1.0000 0.52077  0.32029  0.88686  Biso   1.000  O
  O290     1.0000 0.55627  0.30889  0.91746  Biso   1.000  O
  O291     1.0000 0.58657  0.27459  0.90576  Biso   1.000  O
  O292     1.0000 0.57867  0.24849  0.86266  Biso   1.000  O
  O293     1.0000 0.54477  0.26120  0.83496  Biso   1.000  O
  O294     1.0000 0.51757  0.29510  0.84696  Biso   1.000  O
  O295     1.0000 0.48537  0.35540  0.89656  Biso   1.000  O
  O296     1.0000 0.61267  0.20670  0.85556  Biso   1.000  O
  O297     1.0000 0.67337  0.16699  0.87516  Biso   1.000  O
  O298     1.0000 0.99617  0.64590  0.38686  Biso   1.000  O
  O299     1.0000 0.96067  0.65730  0.41746  Biso   1.000  O
  O300     1.0000 0.93037  0.69160  0.40576  Biso   1.000  O
  O301     1.0000 0.93827  0.71770  0.36266  Biso   1.000  O
  O302     1.0000 0.97217  0.70500  0.33496  Biso   1.000  O
  O303     1.0000 0.99937  0.67110  0.34696  Biso   1.000  O
  O304     1.0000 0.03157  0.61080  0.39656  Biso   1.000  O
  O305     1.0000 0.90427  0.75950  0.35556  Biso   1.000  O
  O306     1.0000 0.84357  0.79920  0.37516  Biso   1.000  O
  O307     1.0000 0.49617  0.82030  0.61326  Biso   1.000  O
  O308     1.0000 0.46067  0.80890  0.58266  Biso   1.000  O
  O309     1.0000 0.43037  0.77460  0.59436  Biso   1.000  O
  O310     1.0000 0.43827  0.74850  0.63746  Biso   1.000  O
  O311     1.0000 0.47217  0.76120  0.66516  Biso   1.000  O
  O312     1.0000 0.49937  0.79510  0.65316  Biso   1.000  O
  O313     1.0000 0.53157  0.85539  0.60356  Biso   1.000  O
  O314     1.0000 0.40427  0.70670  0.64456  Biso   1.000  O
  O315     1.0000 0.34357  0.66700  0.62496  Biso   1.000  O
  O316     1.0000 0.02077  0.14590  0.11326  Biso   1.000  O
  O317     1.0000 0.05627  0.15730  0.08266  Biso   1.000  O
  O318     1.0000 0.08657  0.19160  0.09436  Biso   1.000  O
  O319     1.0000 0.07867  0.21770  0.13746  Biso   1.000  O
  O320     1.0000 0.04477  0.20500  0.16516  Biso   1.000  O
  O321     1.0000 0.01757  0.17110  0.15316  Biso   1.000  O
  O322     1.0000 0.98537  0.11080  0.10356  Biso   1.000  O
  O323     1.0000 0.11267  0.25950  0.14456  Biso   1.000  O
  O324     1.0000 0.17337  0.29920  0.12496  Biso   1.000  O
  O325     1.0000 0.14417  0.45360  0.11156  Biso   1.000  O
  O326     1.0000 0.07887  0.43290  0.15545  Biso   1.000  O
  O327     1.0000 0.64417  0.01259  0.88856  Biso   1.000  O
  O328     1.0000 0.57887  0.03329  0.84467  Biso   1.000  O
  O329     1.0000 0.87277  0.95360  0.38856  Biso   1.000  O
  O330     1.0000 0.93807  0.93290  0.34467  Biso   1.000  O
  O331     1.0000 0.37277  0.51260  0.61156  Biso   1.000  O
  O332     1.0000 0.43807  0.53330  0.65545  Biso   1.000  O
  O333     1.0000 0.03797  0.37160  0.13576  Biso   1.000  O
  O334     1.0000 0.05867  0.32771  0.07046  Biso   1.000  O
  O335     1.0000 0.47897  0.59460  0.63576  Biso   1.000  O
  O336     1.0000 0.45827  0.63849  0.57046  Biso   1.000  O
  O337     1.0000 0.53797  0.09459  0.86436  Biso   1.000  O
  O338     1.0000 0.55867  0.13848  0.92966  Biso   1.000  O
  O339     1.0000 0.97897  0.87160  0.36436  Biso   1.000  O
  O340     1.0000 0.95827  0.82771  0.42966  Biso   1.000  O
  O341     1.0000 0.11997  0.34740  0.02956  Biso   1.000  O
  O342     1.0000 0.16386  0.41270  0.05026  Biso   1.000  O
  O343     1.0000 0.89697  0.84740  0.47056  Biso   1.000  O
  O344     1.0000 0.85308  0.91270  0.44986  Biso   1.000  O
  O345     1.0000 0.39697  0.61880  0.52956  Biso   1.000  O
  O346     1.0000 0.35308  0.55350  0.55026  Biso   1.000  O
  O347     1.0000 0.61997  0.11879  0.97056  Biso   1.000  O
  O348     1.0000 0.66386  0.05349  0.94986  Biso   1.000  O
  O349     1.0000 0.62277  0.12159  0.77956  Biso   1.000  O
  O350     1.0000 0.68807  0.07770  0.80026  Biso   1.000  O
  O351     1.0000 0.12277  0.34460  0.22056  Biso   1.000  O
  O352     1.0000 0.18807  0.38849  0.19986  Biso   1.000  O
  O353     1.0000 0.89417  0.84460  0.27956  Biso   1.000  O
  O354     1.0000 0.82887  0.88849  0.30026  Biso   1.000  O
  O355     1.0000 0.39417  0.62160  0.72056  Biso   1.000  O
  O356     1.0000 0.32887  0.57771  0.69986  Biso   1.000  O
  O357     1.0000 0.72897  0.09739  0.86156  Biso   1.000  O
  O358     1.0000 0.70827  0.16269  0.90545  Biso   1.000  O
  O359     1.0000 0.28797  0.59740  0.63856  Biso   1.000  O
  O360     1.0000 0.30867  0.66270  0.59467  Biso   1.000  O
  O361     1.0000 0.22897  0.36880  0.13856  Biso   1.000  O
  O362     1.0000 0.20827  0.30350  0.09467  Biso   1.000  O
  O363     1.0000 0.78797  0.86880  0.36156  Biso   1.000  O
  O364     1.0000 0.80867  0.80350  0.40545  Biso   1.000  O
  O365     1.0000 0.64697  0.20359  0.88576  Biso   1.000  O
  O366     1.0000 0.60308  0.18289  0.82046  Biso   1.000  O
  O367     1.0000 0.86997  0.76260  0.38576  Biso   1.000  O
  O368     1.0000 0.91386  0.78330  0.32046  Biso   1.000  O
  O369     1.0000 0.36997  0.70360  0.61436  Biso   1.000  O
  O370     1.0000 0.41386  0.68290  0.67966  Biso   1.000  O
  O371     1.0000 0.14697  0.26260  0.11436  Biso   1.000  O
  O372     1.0000 0.10308  0.28330  0.17966  Biso   1.000  O
  O373     1.0000 0.10090  0.39067  0.09249  Biso   1.000  O
  O374     1.0000 0.60090  0.07552  0.90763  Biso   1.000  O
  O375     1.0000 0.91604  0.89067  0.40763  Biso   1.000  O
  O376     1.0000 0.41604  0.57553  0.59249  Biso   1.000  O
  O377     1.0000 0.66604  0.14066  0.84249  Biso   1.000  O
  O378     1.0000 0.16604  0.32553  0.15763  Biso   1.000  O
  O379     1.0000 0.85090  0.82553  0.34249  Biso   1.000  O
  O380     1.0000 0.35090  0.64067  0.65763  Biso   1.000  O
  O381     1.0000 0.18960  0.62916  0.26579  Biso   1.000  O
  O382     1.0000 0.12934  0.60692  0.31241  Biso   1.000  O
  O383     1.0000 0.68960  0.83703  0.73433  Biso   1.000  O
  O384     1.0000 0.62934  0.85927  0.68771  Biso   1.000  O
  O385     1.0000 0.82734  0.12916  0.23433  Biso   1.000  O
  O386     1.0000 0.88760  0.10692  0.18771  Biso   1.000  O
  O387     1.0000 0.32734  0.33703  0.76579  Biso   1.000  O
  O388     1.0000 0.38760  0.35928  0.81241  Biso   1.000  O
  O389     1.0000 0.86241  0.21737  0.18119  Biso   1.000  O
  O390     1.0000 0.88465  0.17075  0.12093  Biso   1.000  O
  O391     1.0000 0.65453  0.74882  0.68119  Biso   1.000  O
  O392     1.0000 0.63229  0.79544  0.62093  Biso   1.000  O
  O393     1.0000 0.36241  0.24882  0.81893  Biso   1.000  O
  O394     1.0000 0.38465  0.29545  0.87919  Biso   1.000  O
  O395     1.0000 0.15453  0.71737  0.31893  Biso   1.000  O
  O396     1.0000 0.13229  0.67075  0.37919  Biso   1.000  O
  O397     1.0000 0.27420  0.30197  0.85400  Biso   1.000  O
  O398     1.0000 0.32082  0.36223  0.87624  Biso   1.000  O
  O399     1.0000 0.74274  0.80197  0.64612  Biso   1.000  O
  O400     1.0000 0.69612  0.86223  0.62388  Biso   1.000  O
  O401     1.0000 0.24274  0.66423  0.35400  Biso   1.000  O
  O402     1.0000 0.19612  0.60397  0.37624  Biso   1.000  O
  O403     1.0000 0.77420  0.16423  0.14612  Biso   1.000  O
  O404     1.0000 0.82082  0.10397  0.12388  Biso   1.000  O
  O405     1.0000 0.57734  0.96736  0.60400  Biso   1.000  O
  O406     1.0000 0.63760  0.92074  0.62624  Biso   1.000  O
  O407     1.0000 0.07734  0.49883  0.39612  Biso   1.000  O
  O408     1.0000 0.13760  0.54545  0.37388  Biso   1.000  O
  O409     1.0000 0.93960  0.99883  0.10400  Biso   1.000  O
  O410     1.0000 0.87934  0.04545  0.12624  Biso   1.000  O
  O411     1.0000 0.43960  0.46737  0.89612  Biso   1.000  O
  O412     1.0000 0.37934  0.42075  0.87388  Biso   1.000  O
  O413     1.0000 0.90453  0.05197  0.01579  Biso   1.000  O
  O414     1.0000 0.88229  0.11223  0.06241  Biso   1.000  O
  O415     1.0000 0.11241  0.55197  0.48433  Biso   1.000  O
  O416     1.0000 0.13465  0.61223  0.43771  Biso   1.000  O
  O417     1.0000 0.40453  0.41423  0.98433  Biso   1.000  O
  O418     1.0000 0.38229  0.35397  0.93771  Biso   1.000  O
  O419     1.0000 0.61241  0.91422  0.51579  Biso   1.000  O
  O420     1.0000 0.63465  0.85396  0.56241  Biso   1.000  O
  O421     1.0000 0.49274  0.37916  0.93119  Biso   1.000  O
  O422     1.0000 0.44612  0.35691  0.87093  Biso   1.000  O
  O423     1.0000 0.02420  0.58704  0.43119  Biso   1.000  O
  O424     1.0000 0.07082  0.60928  0.37093  Biso   1.000  O
  O425     1.0000 0.52420  0.87915  0.56893  Biso   1.000  O
  O426     1.0000 0.57082  0.85692  0.62919  Biso   1.000  O
  O427     1.0000 0.99274  0.08704  0.06893  Biso   1.000  O
