data_image0
_cell_length_a       39.2929
_cell_length_b       39.2929
_cell_length_c       39.2929
_cell_angle_alpha    60
_cell_angle_beta     60
_cell_angle_gamma    60

_symmetry_space_group_name_H-M    "P 1"
_symmetry_int_tables_number       1

loop_
  _symmetry_equiv_pos_as_xyz
  'x, y, z'

loop_
  _atom_site_label
  _atom_site_occupancy
  _atom_site_fract_x
  _atom_site_fract_y
  _atom_site_fract_z
  _atom_site_thermal_displace_type
  _atom_site_B_iso_or_equiv
  _atom_site_type_symbol
  Zr1      1.0000 0.33088  0.95016  0.85948  Biso   1.000  Zr
  Zr2      1.0000 0.80010  0.89100  0.89100  Biso   1.000  Zr
  Zr3      1.0000 0.89100  0.89100  0.41790  Biso   1.000  Zr
  Zr4      1.0000 0.89100  0.41790  0.80010  Biso   1.000  Zr
  Zr5      1.0000 0.89100  0.80010  0.41790  Biso   1.000  Zr
  Zr6      1.0000 0.33088  0.85948  0.85948  Biso   1.000  Zr
  Zr7      1.0000 0.41790  0.80010  0.89100  Biso   1.000  Zr
  Zr8      1.0000 0.89100  0.89100  0.80010  Biso   1.000  Zr
  Zr9      1.0000 0.89100  0.41790  0.89100  Biso   1.000  Zr
  Zr10     1.0000 0.41790  0.89100  0.89100  Biso   1.000  Zr
  Zr11     1.0000 0.85948  0.85948  0.33088  Biso   1.000  Zr
  Zr12     1.0000 0.85948  0.33088  0.85948  Biso   1.000  Zr
  Zr13     1.0000 0.85948  0.33088  0.95016  Biso   1.000  Zr
  Zr14     1.0000 0.89100  0.80010  0.89100  Biso   1.000  Zr
  Zr15     1.0000 0.85948  0.95016  0.85948  Biso   1.000  Zr
  Zr16     1.0000 0.85948  0.95016  0.33088  Biso   1.000  Zr
  Zr17     1.0000 0.95016  0.33088  0.85948  Biso   1.000  Zr
  Zr18     1.0000 0.41790  0.89100  0.80010  Biso   1.000  Zr
  Zr19     1.0000 0.95016  0.85948  0.33088  Biso   1.000  Zr
  Zr20     1.0000 0.80010  0.89100  0.41790  Biso   1.000  Zr
  Zr21     1.0000 0.33088  0.85948  0.95016  Biso   1.000  Zr
  Zr22     1.0000 0.95016  0.85948  0.85948  Biso   1.000  Zr
  Zr23     1.0000 0.80010  0.41790  0.89100  Biso   1.000  Zr
  Zr24     1.0000 0.85948  0.85948  0.95016  Biso   1.000  Zr
  H1       1.0000 0.60317  0.68021  0.92595  Biso   1.000  H
  H2       1.0000 0.95818  0.82844  0.14474  Biso   1.000  H
  H3       1.0000 0.53518  0.82948  0.91632  Biso   1.000  H
  H4       1.0000 0.02983  0.21273  0.91937  Biso   1.000  H
  H5       1.0000 0.68021  0.79067  0.60317  Biso   1.000  H
  H6       1.0000 0.82844  0.95818  0.06864  Biso   1.000  H
  H7       1.0000 0.83807  0.21273  0.02983  Biso   1.000  H
  H8       1.0000 0.21273  0.83807  0.02983  Biso   1.000  H
  H9       1.0000 0.91632  0.71902  0.82948  Biso   1.000  H
  H10      1.0000 0.71902  0.53518  0.91632  Biso   1.000  H
  H11      1.0000 0.71902  0.53518  0.82948  Biso   1.000  H
  H12      1.0000 0.82948  0.91632  0.53518  Biso   1.000  H
  H13      1.0000 0.14474  0.06864  0.82844  Biso   1.000  H
  H14      1.0000 0.82844  0.06864  0.95818  Biso   1.000  H
  H15      1.0000 0.21273  0.02983  0.83807  Biso   1.000  H
  H16      1.0000 0.92595  0.68021  0.79067  Biso   1.000  H
  H17      1.0000 0.92595  0.79067  0.68021  Biso   1.000  H
  H18      1.0000 0.91937  0.83807  0.02983  Biso   1.000  H
  H19      1.0000 0.95818  0.06864  0.14474  Biso   1.000  H
  H20      1.0000 0.14474  0.82844  0.06864  Biso   1.000  H
  H21      1.0000 0.91632  0.53518  0.71902  Biso   1.000  H
  H22      1.0000 0.91632  0.71902  0.53518  Biso   1.000  H
  H23      1.0000 0.91632  0.82948  0.71902  Biso   1.000  H
  H24      1.0000 0.68021  0.60317  0.79067  Biso   1.000  H
  H25      1.0000 0.21273  0.91937  0.02983  Biso   1.000  H
  H26      1.0000 0.91632  0.53518  0.82948  Biso   1.000  H
  H27      1.0000 0.53518  0.71902  0.91632  Biso   1.000  H
  H28      1.0000 0.06864  0.95818  0.82844  Biso   1.000  H
  H29      1.0000 0.92595  0.68021  0.60317  Biso   1.000  H
  H30      1.0000 0.68021  0.79067  0.92595  Biso   1.000  H
  H31      1.0000 0.60317  0.92595  0.79067  Biso   1.000  H
  H32      1.0000 0.14474  0.95818  0.82844  Biso   1.000  H
  H33      1.0000 0.14474  0.95818  0.06864  Biso   1.000  H
  H34      1.0000 0.02983  0.83807  0.91937  Biso   1.000  H
  H35      1.0000 0.91937  0.02983  0.21273  Biso   1.000  H
  H36      1.0000 0.71902  0.82948  0.91632  Biso   1.000  H
  H37      1.0000 0.83807  0.21273  0.91937  Biso   1.000  H
  H38      1.0000 0.95818  0.14474  0.06864  Biso   1.000  H
  H39      1.0000 0.83807  0.02983  0.91937  Biso   1.000  H
  H40      1.0000 0.53518  0.91632  0.71902  Biso   1.000  H
  H41      1.0000 0.83807  0.91937  0.02983  Biso   1.000  H
  H42      1.0000 0.53518  0.71902  0.82948  Biso   1.000  H
  H43      1.0000 0.68021  0.92595  0.60317  Biso   1.000  H
  H44      1.0000 0.91937  0.21273  0.83807  Biso   1.000  H
  H45      1.0000 0.79067  0.60317  0.92595  Biso   1.000  H
  H46      1.0000 0.79067  0.92595  0.68021  Biso   1.000  H
  H47      1.0000 0.95818  0.14474  0.82844  Biso   1.000  H
  H48      1.0000 0.92595  0.60317  0.68021  Biso   1.000  H
  H49      1.0000 0.53518  0.91632  0.82948  Biso   1.000  H
  H50      1.0000 0.71902  0.91632  0.53518  Biso   1.000  H
  H51      1.0000 0.82948  0.53518  0.71902  Biso   1.000  H
  H52      1.0000 0.21273  0.83807  0.91937  Biso   1.000  H
  H53      1.0000 0.91632  0.82948  0.53518  Biso   1.000  H
  H54      1.0000 0.95818  0.82844  0.06864  Biso   1.000  H
  H55      1.0000 0.68021  0.92595  0.79067  Biso   1.000  H
  H56      1.0000 0.60317  0.92595  0.68021  Biso   1.000  H
  H57      1.0000 0.82948  0.91632  0.71902  Biso   1.000  H
  H58      1.0000 0.92595  0.79067  0.60317  Biso   1.000  H
  H59      1.0000 0.95818  0.06864  0.82844  Biso   1.000  H
  H60      1.0000 0.02983  0.91937  0.21273  Biso   1.000  H
  H61      1.0000 0.82844  0.06864  0.14474  Biso   1.000  H
  H62      1.0000 0.79067  0.60317  0.68021  Biso   1.000  H
  H63      1.0000 0.82844  0.95818  0.14474  Biso   1.000  H
  H64      1.0000 0.06864  0.82844  0.95818  Biso   1.000  H
  H65      1.0000 0.79067  0.92595  0.60317  Biso   1.000  H
  H66      1.0000 0.83807  0.02983  0.21273  Biso   1.000  H
  H67      1.0000 0.71902  0.91632  0.82948  Biso   1.000  H
  H68      1.0000 0.79067  0.68021  0.60317  Biso   1.000  H
  H69      1.0000 0.91937  0.83807  0.21273  Biso   1.000  H
  H70      1.0000 0.14474  0.06864  0.95818  Biso   1.000  H
  H71      1.0000 0.91937  0.21273  0.02983  Biso   1.000  H
  H72      1.0000 0.02983  0.83807  0.21273  Biso   1.000  H
  H73      1.0000 0.02983  0.91937  0.83807  Biso   1.000  H
  H74      1.0000 0.60317  0.79067  0.68021  Biso   1.000  H
  H75      1.0000 0.92595  0.60317  0.79067  Biso   1.000  H
  H76      1.0000 0.91937  0.02983  0.83807  Biso   1.000  H
  H77      1.0000 0.21273  0.91937  0.83807  Biso   1.000  H
  H78      1.0000 0.06864  0.14474  0.82844  Biso   1.000  H
  H79      1.0000 0.06864  0.82844  0.14474  Biso   1.000  H
  H80      1.0000 0.82948  0.71902  0.53518  Biso   1.000  H
  H81      1.0000 0.79067  0.68021  0.92595  Biso   1.000  H
  H82      1.0000 0.06864  0.95818  0.14474  Biso   1.000  H
  H83      1.0000 0.71902  0.82948  0.53518  Biso   1.000  H
  H84      1.0000 0.53518  0.82948  0.71902  Biso   1.000  H
  H85      1.0000 0.82948  0.53518  0.91632  Biso   1.000  H
  H86      1.0000 0.83807  0.91937  0.21273  Biso   1.000  H
  H87      1.0000 0.68021  0.60317  0.92595  Biso   1.000  H
  H88      1.0000 0.06864  0.14474  0.95818  Biso   1.000  H
  H89      1.0000 0.60317  0.79067  0.92595  Biso   1.000  H
  H90      1.0000 0.82844  0.14474  0.06864  Biso   1.000  H
  H91      1.0000 0.82948  0.71902  0.91632  Biso   1.000  H
  H92      1.0000 0.14474  0.82844  0.95818  Biso   1.000  H
  H93      1.0000 0.60317  0.68021  0.79067  Biso   1.000  H
  H94      1.0000 0.02983  0.21273  0.83807  Biso   1.000  H
  H95      1.0000 0.21273  0.02983  0.91937  Biso   1.000  H
  H96      1.0000 0.82844  0.14474  0.95818  Biso   1.000  H
  C1       1.0000 0.91882  0.79680  0.73494  Biso   1.000  C
  C2       1.0000 0.82794  0.01650  0.01650  Biso   1.000  C
  C3       1.0000 0.97139  0.83899  0.21823  Biso   1.000  C
  C4       1.0000 0.82794  0.13906  0.01650  Biso   1.000  C
  C5       1.0000 0.94676  0.94676  0.84862  Biso   1.000  C
  C6       1.0000 0.71267  0.92429  0.58853  Biso   1.000  C
  C7       1.0000 0.91540  0.52968  0.77746  Biso   1.000  C
  C8       1.0000 0.97434  0.03618  0.15938  Biso   1.000  C
  C9       1.0000 0.70965  0.92899  0.65171  Biso   1.000  C
  C10      1.0000 0.73235  0.60885  0.92645  Biso   1.000  C
  C11      1.0000 0.54944  0.73494  0.91882  Biso   1.000  C
  C12      1.0000 0.83557  0.95205  0.01391  Biso   1.000  C
  C13      1.0000 0.49005  0.80209  0.80209  Biso   1.000  C
  C14      1.0000 0.97434  0.03618  0.83010  Biso   1.000  C
  C15      1.0000 0.79680  0.54944  0.73494  Biso   1.000  C
  C16      1.0000 0.01391  0.83557  0.19847  Biso   1.000  C
  C17      1.0000 0.82540  0.03920  0.09620  Biso   1.000  C
  C18      1.0000 0.19847  0.01391  0.83557  Biso   1.000  C
  C19      1.0000 0.77746  0.77746  0.91540  Biso   1.000  C
  C20      1.0000 0.58853  0.92429  0.77451  Biso   1.000  C
  C21      1.0000 0.01391  0.19847  0.83557  Biso   1.000  C
  C22      1.0000 0.97139  0.21823  0.83899  Biso   1.000  C
  C23      1.0000 0.19847  0.95205  0.83557  Biso   1.000  C
  C24      1.0000 0.92429  0.71267  0.58853  Biso   1.000  C
  C25      1.0000 0.97139  0.83899  0.97139  Biso   1.000  C
  C26      1.0000 0.91882  0.73494  0.54944  Biso   1.000  C
  C27      1.0000 0.71267  0.77451  0.92429  Biso   1.000  C
  C28      1.0000 0.15938  0.97434  0.83010  Biso   1.000  C
  C29      1.0000 0.71267  0.77451  0.58853  Biso   1.000  C
  C30      1.0000 0.73235  0.73235  0.92645  Biso   1.000  C
  C31      1.0000 0.82794  0.01650  0.13906  Biso   1.000  C
  C32      1.0000 0.19847  0.83557  0.01391  Biso   1.000  C
  C33      1.0000 0.73494  0.79680  0.54944  Biso   1.000  C
  C34      1.0000 0.95205  0.83557  0.19847  Biso   1.000  C
  C35      1.0000 0.03920  0.09620  0.82540  Biso   1.000  C
  C36      1.0000 0.65171  0.70965  0.70965  Biso   1.000  C
  C37      1.0000 0.03618  0.83010  0.15938  Biso   1.000  C
  C38      1.0000 0.97434  0.83010  0.15938  Biso   1.000  C
  C39      1.0000 0.80209  0.80209  0.49005  Biso   1.000  C
  C40      1.0000 0.73494  0.91882  0.79680  Biso   1.000  C
  C41      1.0000 0.91882  0.73494  0.79680  Biso   1.000  C
  C42      1.0000 0.90577  0.80209  0.49005  Biso   1.000  C
  C43      1.0000 0.73494  0.54944  0.79680  Biso   1.000  C
  C44      1.0000 0.25786  0.94676  0.94676  Biso   1.000  C
  C45      1.0000 0.58853  0.77451  0.71267  Biso   1.000  C
  C46      1.0000 0.82540  0.09620  0.03920  Biso   1.000  C
  C47      1.0000 0.83010  0.15938  0.97434  Biso   1.000  C
  C48      1.0000 0.13906  0.01650  0.01650  Biso   1.000  C
  C49      1.0000 0.21823  0.97139  0.83899  Biso   1.000  C
  C50      1.0000 0.54944  0.79680  0.91882  Biso   1.000  C
  C51      1.0000 0.15938  0.83010  0.03618  Biso   1.000  C
  C52      1.0000 0.77451  0.58853  0.92429  Biso   1.000  C
  C53      1.0000 0.97434  0.15938  0.83010  Biso   1.000  C
  C54      1.0000 0.03618  0.15938  0.97434  Biso   1.000  C
  C55      1.0000 0.60885  0.73235  0.92645  Biso   1.000  C
  C56      1.0000 0.52968  0.77746  0.91540  Biso   1.000  C
  C57      1.0000 0.97434  0.15938  0.03618  Biso   1.000  C
  C58      1.0000 0.52968  0.91540  0.77746  Biso   1.000  C
  C59      1.0000 0.92429  0.58853  0.77451  Biso   1.000  C
  C60      1.0000 0.01650  0.13906  0.01650  Biso   1.000  C
  C61      1.0000 0.82540  0.03920  0.03920  Biso   1.000  C
  C62      1.0000 0.95205  0.01391  0.19847  Biso   1.000  C
  C63      1.0000 0.21823  0.97139  0.97139  Biso   1.000  C
  C64      1.0000 0.79680  0.73494  0.91882  Biso   1.000  C
  C65      1.0000 0.49005  0.80209  0.90577  Biso   1.000  C
  C66      1.0000 0.80209  0.90577  0.49005  Biso   1.000  C
  C67      1.0000 0.83557  0.01391  0.95205  Biso   1.000  C
  C68      1.0000 0.58853  0.92429  0.71267  Biso   1.000  C
  C69      1.0000 0.54944  0.91882  0.79680  Biso   1.000  C
  C70      1.0000 0.83557  0.01391  0.19847  Biso   1.000  C
  C71      1.0000 0.92645  0.60885  0.73235  Biso   1.000  C
  C72      1.0000 0.83899  0.97139  0.21823  Biso   1.000  C
  C73      1.0000 0.77451  0.71267  0.92429  Biso   1.000  C
  C74      1.0000 0.15938  0.03618  0.83010  Biso   1.000  C
  C75      1.0000 0.94676  0.84862  0.25786  Biso   1.000  C
  C76      1.0000 0.80209  0.49005  0.80209  Biso   1.000  C
  C77      1.0000 0.80209  0.80209  0.90577  Biso   1.000  C
  C78      1.0000 0.03618  0.83010  0.97434  Biso   1.000  C
  C79      1.0000 0.79680  0.91882  0.54944  Biso   1.000  C
  C80      1.0000 0.54944  0.91882  0.73494  Biso   1.000  C
  C81      1.0000 0.83899  0.97139  0.97139  Biso   1.000  C
  C82      1.0000 0.01650  0.01650  0.13906  Biso   1.000  C
  C83      1.0000 0.83010  0.03618  0.15938  Biso   1.000  C
  C84      1.0000 0.73235  0.92645  0.73235  Biso   1.000  C
  C85      1.0000 0.79680  0.54944  0.91882  Biso   1.000  C
  C86      1.0000 0.01391  0.83557  0.95205  Biso   1.000  C
  C87      1.0000 0.65171  0.70965  0.92899  Biso   1.000  C
  C88      1.0000 0.92429  0.58853  0.71267  Biso   1.000  C
  C89      1.0000 0.70965  0.65171  0.70965  Biso   1.000  C
  C90      1.0000 0.79680  0.91882  0.73494  Biso   1.000  C
  C91      1.0000 0.71267  0.58853  0.77451  Biso   1.000  C
  C92      1.0000 0.97139  0.97139  0.21823  Biso   1.000  C
  C93      1.0000 0.60885  0.73235  0.73235  Biso   1.000  C
  C94      1.0000 0.01650  0.82794  0.01650  Biso   1.000  C
  C95      1.0000 0.77746  0.52968  0.77746  Biso   1.000  C
  C96      1.0000 0.01650  0.01650  0.82794  Biso   1.000  C
  C97      1.0000 0.70965  0.65171  0.92899  Biso   1.000  C
  C98      1.0000 0.83010  0.97434  0.03618  Biso   1.000  C
  C99      1.0000 0.09620  0.03920  0.82540  Biso   1.000  C
  C100     1.0000 0.84862  0.94676  0.94676  Biso   1.000  C
  C101     1.0000 0.77451  0.58853  0.71267  Biso   1.000  C
  C102     1.0000 0.90577  0.49005  0.80209  Biso   1.000  C
  C103     1.0000 0.13906  0.01650  0.82794  Biso   1.000  C
  C104     1.0000 0.77451  0.92429  0.71267  Biso   1.000  C
  C105     1.0000 0.19847  0.01391  0.95205  Biso   1.000  C
  C106     1.0000 0.92899  0.70965  0.65171  Biso   1.000  C
  C107     1.0000 0.84862  0.94676  0.25786  Biso   1.000  C
  C108     1.0000 0.65171  0.92899  0.70965  Biso   1.000  C
  C109     1.0000 0.91540  0.77746  0.77746  Biso   1.000  C
  C110     1.0000 0.80209  0.90577  0.80209  Biso   1.000  C
  C111     1.0000 0.73235  0.92645  0.60885  Biso   1.000  C
  C112     1.0000 0.58853  0.71267  0.92429  Biso   1.000  C
  C113     1.0000 0.01391  0.95205  0.19847  Biso   1.000  C
  C114     1.0000 0.01650  0.13906  0.82794  Biso   1.000  C
  C115     1.0000 0.03920  0.03920  0.82540  Biso   1.000  C
  C116     1.0000 0.25786  0.84862  0.94676  Biso   1.000  C
  C117     1.0000 0.77451  0.92429  0.58853  Biso   1.000  C
  C118     1.0000 0.92899  0.70965  0.70965  Biso   1.000  C
  C119     1.0000 0.83557  0.95205  0.19847  Biso   1.000  C
  C120     1.0000 0.01391  0.19847  0.95205  Biso   1.000  C
  C121     1.0000 0.73494  0.91882  0.54944  Biso   1.000  C
  C122     1.0000 0.92899  0.65171  0.70965  Biso   1.000  C
  C123     1.0000 0.49005  0.90577  0.80209  Biso   1.000  C
  C124     1.0000 0.83557  0.19847  0.95205  Biso   1.000  C
  C125     1.0000 0.60885  0.92645  0.73235  Biso   1.000  C
  C126     1.0000 0.03618  0.15938  0.83010  Biso   1.000  C
  C127     1.0000 0.19847  0.83557  0.95205  Biso   1.000  C
  C128     1.0000 0.83899  0.21823  0.97139  Biso   1.000  C
  C129     1.0000 0.94676  0.84862  0.94676  Biso   1.000  C
  C130     1.0000 0.92645  0.73235  0.60885  Biso   1.000  C
  C131     1.0000 0.09620  0.03920  0.03920  Biso   1.000  C
  C132     1.0000 0.95205  0.83557  0.01391  Biso   1.000  C
  C133     1.0000 0.77451  0.71267  0.58853  Biso   1.000  C
  C134     1.0000 0.03618  0.97434  0.15938  Biso   1.000  C
  C135     1.0000 0.03920  0.82540  0.09620  Biso   1.000  C
  C136     1.0000 0.15938  0.97434  0.03618  Biso   1.000  C
  C137     1.0000 0.80209  0.49005  0.90577  Biso   1.000  C
  C138     1.0000 0.71267  0.92429  0.77451  Biso   1.000  C
  C139     1.0000 0.91882  0.79680  0.54944  Biso   1.000  C
  C140     1.0000 0.70965  0.92899  0.70965  Biso   1.000  C
  C141     1.0000 0.95205  0.19847  0.83557  Biso   1.000  C
  C142     1.0000 0.97434  0.83010  0.03618  Biso   1.000  C
  C143     1.0000 0.97139  0.21823  0.97139  Biso   1.000  C
  C144     1.0000 0.54944  0.73494  0.79680  Biso   1.000  C
  C145     1.0000 0.90577  0.80209  0.80209  Biso   1.000  C
  C146     1.0000 0.92429  0.71267  0.77451  Biso   1.000  C
  C147     1.0000 0.94676  0.94676  0.25786  Biso   1.000  C
  C148     1.0000 0.13906  0.82794  0.01650  Biso   1.000  C
  C149     1.0000 0.95205  0.01391  0.83557  Biso   1.000  C
  C150     1.0000 0.25786  0.94676  0.84862  Biso   1.000  C
  C151     1.0000 0.77746  0.52968  0.91540  Biso   1.000  C
  C152     1.0000 0.92645  0.73235  0.73235  Biso   1.000  C
  C153     1.0000 0.09620  0.82540  0.03920  Biso   1.000  C
  C154     1.0000 0.92429  0.77451  0.71267  Biso   1.000  C
  C155     1.0000 0.94676  0.25786  0.84862  Biso   1.000  C
  C156     1.0000 0.73494  0.54944  0.91882  Biso   1.000  C
  C157     1.0000 0.77746  0.91540  0.77746  Biso   1.000  C
  C158     1.0000 0.79680  0.73494  0.54944  Biso   1.000  C
  C159     1.0000 0.91882  0.54944  0.79680  Biso   1.000  C
  C160     1.0000 0.15938  0.03618  0.97434  Biso   1.000  C
  C161     1.0000 0.83010  0.97434  0.15938  Biso   1.000  C
  C162     1.0000 0.84862  0.25786  0.94676  Biso   1.000  C
  C163     1.0000 0.91882  0.54944  0.73494  Biso   1.000  C
  C164     1.0000 0.73494  0.79680  0.91882  Biso   1.000  C
  C165     1.0000 0.94676  0.25786  0.94676  Biso   1.000  C
  C166     1.0000 0.58853  0.77451  0.92429  Biso   1.000  C
  C167     1.0000 0.97139  0.97139  0.83899  Biso   1.000  C
  C168     1.0000 0.73235  0.60885  0.73235  Biso   1.000  C
  C169     1.0000 0.52968  0.77746  0.77746  Biso   1.000  C
  C170     1.0000 0.03920  0.82540  0.03920  Biso   1.000  C
  C171     1.0000 0.91540  0.77746  0.52968  Biso   1.000  C
  C172     1.0000 0.01650  0.82794  0.13906  Biso   1.000  C
  C173     1.0000 0.15938  0.83010  0.97434  Biso   1.000  C
  C174     1.0000 0.92429  0.77451  0.58853  Biso   1.000  C
  C175     1.0000 0.83010  0.15938  0.03618  Biso   1.000  C
  C176     1.0000 0.21823  0.83899  0.97139  Biso   1.000  C
  C177     1.0000 0.19847  0.95205  0.01391  Biso   1.000  C
  C178     1.0000 0.03920  0.03920  0.09620  Biso   1.000  C
  C179     1.0000 0.03618  0.97434  0.83010  Biso   1.000  C
  C180     1.0000 0.95205  0.19847  0.01391  Biso   1.000  C
  C181     1.0000 0.70965  0.70965  0.65171  Biso   1.000  C
  C182     1.0000 0.71267  0.58853  0.92429  Biso   1.000  C
  C183     1.0000 0.83010  0.03618  0.97434  Biso   1.000  C
  C184     1.0000 0.83557  0.19847  0.01391  Biso   1.000  C
  C185     1.0000 0.58853  0.71267  0.77451  Biso   1.000  C
  C186     1.0000 0.77746  0.77746  0.52968  Biso   1.000  C
  C187     1.0000 0.01391  0.95205  0.83557  Biso   1.000  C
  C188     1.0000 0.03920  0.09620  0.03920  Biso   1.000  C
  C189     1.0000 0.54944  0.79680  0.73494  Biso   1.000  C
  C190     1.0000 0.73235  0.73235  0.60885  Biso   1.000  C
  C191     1.0000 0.77746  0.91540  0.52968  Biso   1.000  C
  C192     1.0000 0.70965  0.70965  0.92899  Biso   1.000  C
  N1       1.0000 0.07757  0.82379  0.02107  Biso   1.000  N
  N2       1.0000 0.67081  0.72825  0.93013  Biso   1.000  N
  N3       1.0000 0.07757  0.82379  0.07757  Biso   1.000  N
  N4       1.0000 0.72825  0.67081  0.93013  Biso   1.000  N
  N5       1.0000 0.93013  0.67081  0.67081  Biso   1.000  N
  N6       1.0000 0.02107  0.07757  0.07757  Biso   1.000  N
  N7       1.0000 0.07757  0.07757  0.02107  Biso   1.000  N
  N8       1.0000 0.67081  0.67081  0.72825  Biso   1.000  N
  N9       1.0000 0.67081  0.72825  0.67081  Biso   1.000  N
  N10      1.0000 0.67081  0.93013  0.67081  Biso   1.000  N
  N11      1.0000 0.72825  0.93013  0.67081  Biso   1.000  N
  N12      1.0000 0.67081  0.93013  0.72825  Biso   1.000  N
  N13      1.0000 0.07757  0.07757  0.82379  Biso   1.000  N
  N14      1.0000 0.93013  0.72825  0.67081  Biso   1.000  N
  N15      1.0000 0.82379  0.07757  0.07757  Biso   1.000  N
  N16      1.0000 0.07757  0.02107  0.07757  Biso   1.000  N
  N17      1.0000 0.67081  0.67081  0.93013  Biso   1.000  N
  N18      1.0000 0.02107  0.07757  0.82379  Biso   1.000  N
  N19      1.0000 0.02107  0.82379  0.07757  Biso   1.000  N
  N20      1.0000 0.82379  0.02107  0.07757  Biso   1.000  N
  N21      1.0000 0.07757  0.02107  0.82379  Biso   1.000  N
  N22      1.0000 0.72825  0.67081  0.67081  Biso   1.000  N
  N23      1.0000 0.93013  0.67081  0.72825  Biso   1.000  N
  N24      1.0000 0.82379  0.07757  0.02107  Biso   1.000  N
  O1       1.0000 0.83727  0.83727  0.39777  Biso   1.000  O
  O2       1.0000 0.92769  0.83727  0.39777  Biso   1.000  O
  O3       1.0000 0.90756  0.27356  0.85318  Biso   1.000  O
  O4       1.0000 0.78315  0.47435  0.90121  Biso   1.000  O
  O5       1.0000 0.89682  0.89682  0.30954  Biso   1.000  O
  O6       1.0000 0.85318  0.96570  0.27356  Biso   1.000  O
  O7       1.0000 0.85318  0.90756  0.27356  Biso   1.000  O
  O8       1.0000 0.47435  0.78315  0.84129  Biso   1.000  O
  O9       1.0000 0.84129  0.90121  0.78315  Biso   1.000  O
  O10      1.0000 0.85318  0.27356  0.96570  Biso   1.000  O
  O11      1.0000 0.30954  0.89682  0.89682  Biso   1.000  O
  O12      1.0000 0.85355  0.43935  0.85355  Biso   1.000  O
  O13      1.0000 0.47435  0.84129  0.90121  Biso   1.000  O
  O14      1.0000 0.91316  0.35052  0.82316  Biso   1.000  O
  O15      1.0000 0.96570  0.27356  0.90756  Biso   1.000  O
  O16      1.0000 0.47435  0.90121  0.78315  Biso   1.000  O
  O17      1.0000 0.47435  0.78315  0.90121  Biso   1.000  O
  O18      1.0000 0.39777  0.83727  0.92769  Biso   1.000  O
  O19      1.0000 0.90756  0.27356  0.96570  Biso   1.000  O
  O20      1.0000 0.91316  0.82316  0.91316  Biso   1.000  O
  O21      1.0000 0.96570  0.90756  0.85318  Biso   1.000  O
  O22      1.0000 0.84129  0.47435  0.90121  Biso   1.000  O
  O23      1.0000 0.43935  0.85355  0.85355  Biso   1.000  O
  O24      1.0000 0.83727  0.92769  0.83727  Biso   1.000  O
  O25      1.0000 0.96570  0.27356  0.85318  Biso   1.000  O
  O26      1.0000 0.78315  0.90121  0.84129  Biso   1.000  O
  O27      1.0000 0.96570  0.85318  0.27356  Biso   1.000  O
  O28      1.0000 0.90756  0.96570  0.85318  Biso   1.000  O
  O29      1.0000 0.92769  0.39777  0.83727  Biso   1.000  O
  O30      1.0000 0.27356  0.96570  0.85318  Biso   1.000  O
  O31      1.0000 0.89682  0.89682  0.89682  Biso   1.000  O
  O32      1.0000 0.35052  0.82316  0.91316  Biso   1.000  O
  O33      1.0000 0.90121  0.84129  0.47435  Biso   1.000  O
  O34      1.0000 0.84129  0.90121  0.47435  Biso   1.000  O
  O35      1.0000 0.27356  0.85318  0.96570  Biso   1.000  O
  O36      1.0000 0.84129  0.78315  0.47435  Biso   1.000  O
  O37      1.0000 0.83727  0.92769  0.39777  Biso   1.000  O
  O38      1.0000 0.47435  0.84129  0.78315  Biso   1.000  O
  O39      1.0000 0.83727  0.83727  0.92769  Biso   1.000  O
  O40      1.0000 0.35052  0.91316  0.91316  Biso   1.000  O
  O41      1.0000 0.90121  0.84129  0.78315  Biso   1.000  O
  O42      1.0000 0.82316  0.91316  0.35052  Biso   1.000  O
  O43      1.0000 0.90121  0.78315  0.47435  Biso   1.000  O
  O44      1.0000 0.91316  0.35052  0.91316  Biso   1.000  O
  O45      1.0000 0.85318  0.96570  0.90756  Biso   1.000  O
  O46      1.0000 0.89682  0.30954  0.89682  Biso   1.000  O
  O47      1.0000 0.78315  0.84129  0.47435  Biso   1.000  O
  O48      1.0000 0.85318  0.27356  0.90756  Biso   1.000  O
  O49      1.0000 0.83727  0.39777  0.92769  Biso   1.000  O
  O50      1.0000 0.78315  0.84129  0.90121  Biso   1.000  O
  O51      1.0000 0.27356  0.85318  0.90756  Biso   1.000  O
  O52      1.0000 0.85355  0.85355  0.43935  Biso   1.000  O
  O53      1.0000 0.84129  0.47435  0.78315  Biso   1.000  O
  O54      1.0000 0.91316  0.91316  0.35052  Biso   1.000  O
  O55      1.0000 0.90121  0.78315  0.84129  Biso   1.000  O
  O56      1.0000 0.78315  0.47435  0.84129  Biso   1.000  O
  O57      1.0000 0.39777  0.83727  0.83727  Biso   1.000  O
  O58      1.0000 0.82316  0.35052  0.91316  Biso   1.000  O
  O59      1.0000 0.84129  0.78315  0.90121  Biso   1.000  O
  O60      1.0000 0.90121  0.47435  0.84129  Biso   1.000  O
  O61      1.0000 0.92769  0.83727  0.83727  Biso   1.000  O
  O62      1.0000 0.91316  0.91316  0.82316  Biso   1.000  O
  O63      1.0000 0.90756  0.85318  0.27356  Biso   1.000  O
  O64      1.0000 0.96570  0.90756  0.27356  Biso   1.000  O
  O65      1.0000 0.78315  0.90121  0.47435  Biso   1.000  O
  O66      1.0000 0.35052  0.91316  0.82316  Biso   1.000  O
  O67      1.0000 0.27356  0.96570  0.90756  Biso   1.000  O
  O68      1.0000 0.96570  0.85318  0.90756  Biso   1.000  O
  O69      1.0000 0.47435  0.90121  0.84129  Biso   1.000  O
  O70      1.0000 0.27356  0.90756  0.96570  Biso   1.000  O
  O71      1.0000 0.90756  0.96570  0.27356  Biso   1.000  O
  O72      1.0000 0.83727  0.39777  0.83727  Biso   1.000  O
  O73      1.0000 0.27356  0.90756  0.85318  Biso   1.000  O
  O74      1.0000 0.91316  0.82316  0.35052  Biso   1.000  O
  O75      1.0000 0.85355  0.85355  0.85355  Biso   1.000  O
  O76      1.0000 0.82316  0.91316  0.91316  Biso   1.000  O
  O77      1.0000 0.85318  0.90756  0.96570  Biso   1.000  O
  O78      1.0000 0.90121  0.47435  0.78315  Biso   1.000  O
  O79      1.0000 0.39777  0.92769  0.83727  Biso   1.000  O
  O80      1.0000 0.90756  0.85318  0.96570  Biso   1.000  O
  Zr25     1.0000 0.97652  0.74150  0.15585  Biso   1.000  Zr
  Zr26     1.0000 0.44574  0.68234  0.18737  Biso   1.000  Zr
  Zr27     1.0000 0.53664  0.68234  0.71427  Biso   1.000  Zr
  Zr28     1.0000 0.53664  0.20924  0.09647  Biso   1.000  Zr
  Zr29     1.0000 0.53664  0.59144  0.71427  Biso   1.000  Zr
  Zr30     1.0000 0.97652  0.65082  0.15585  Biso   1.000  Zr
  Zr31     1.0000 0.06354  0.59144  0.18737  Biso   1.000  Zr
  Zr32     1.0000 0.53664  0.68234  0.09647  Biso   1.000  Zr
  Zr33     1.0000 0.53664  0.20924  0.18737  Biso   1.000  Zr
  Zr34     1.0000 0.06354  0.68234  0.18737  Biso   1.000  Zr
  Zr35     1.0000 0.50512  0.65082  0.62725  Biso   1.000  Zr
  Zr36     1.0000 0.50512  0.12222  0.15585  Biso   1.000  Zr
  Zr37     1.0000 0.50512  0.12222  0.24653  Biso   1.000  Zr
  Zr38     1.0000 0.53664  0.59144  0.18737  Biso   1.000  Zr
  Zr39     1.0000 0.50512  0.74150  0.15585  Biso   1.000  Zr
  Zr40     1.0000 0.50512  0.74150  0.62725  Biso   1.000  Zr
  Zr41     1.0000 0.59580  0.12222  0.15585  Biso   1.000  Zr
  Zr42     1.0000 0.06354  0.68234  0.09647  Biso   1.000  Zr
  Zr43     1.0000 0.59580  0.65082  0.62725  Biso   1.000  Zr
  Zr44     1.0000 0.44574  0.68234  0.71427  Biso   1.000  Zr
  Zr45     1.0000 0.97652  0.65082  0.24653  Biso   1.000  Zr
  Zr46     1.0000 0.59580  0.65082  0.15585  Biso   1.000  Zr
  Zr47     1.0000 0.44574  0.20924  0.18737  Biso   1.000  Zr
  Zr48     1.0000 0.50512  0.65082  0.24653  Biso   1.000  Zr
  H97      1.0000 0.24881  0.47155  0.22232  Biso   1.000  H
  H98      1.0000 0.60382  0.61978  0.44111  Biso   1.000  H
  H99      1.0000 0.18082  0.62082  0.21269  Biso   1.000  H
  H100     1.0000 0.67547  0.00407  0.21574  Biso   1.000  H
  H101     1.0000 0.32585  0.58201  0.89954  Biso   1.000  H
  H102     1.0000 0.47408  0.74952  0.36501  Biso   1.000  H
  H103     1.0000 0.48371  0.00407  0.32620  Biso   1.000  H
  H104     1.0000 0.85837  0.62941  0.32620  Biso   1.000  H
  H105     1.0000 0.56196  0.51036  0.12585  Biso   1.000  H
  H106     1.0000 0.36466  0.32652  0.21269  Biso   1.000  H
  H107     1.0000 0.36466  0.32652  0.12585  Biso   1.000  H
  H108     1.0000 0.47512  0.70766  0.83155  Biso   1.000  H
  H109     1.0000 0.79038  0.85998  0.12481  Biso   1.000  H
  H110     1.0000 0.47408  0.85998  0.25455  Biso   1.000  H
  H111     1.0000 0.85837  0.82117  0.13444  Biso   1.000  H
  H112     1.0000 0.57159  0.47155  0.08704  Biso   1.000  H
  H113     1.0000 0.57159  0.58201  0.97658  Biso   1.000  H
  H114     1.0000 0.56501  0.62941  0.32620  Biso   1.000  H
  H115     1.0000 0.60382  0.85998  0.44111  Biso   1.000  H
  H116     1.0000 0.79038  0.61978  0.36501  Biso   1.000  H
  H117     1.0000 0.56196  0.32652  0.01539  Biso   1.000  H
  H118     1.0000 0.56196  0.51036  0.83155  Biso   1.000  H
  H119     1.0000 0.56196  0.62082  0.01539  Biso   1.000  H
  H120     1.0000 0.32585  0.39451  0.08704  Biso   1.000  H
  H121     1.0000 0.85837  0.71071  0.32620  Biso   1.000  H
  H122     1.0000 0.56196  0.32652  0.12585  Biso   1.000  H
  H123     1.0000 0.18082  0.51036  0.21269  Biso   1.000  H
  H124     1.0000 0.71428  0.74952  0.12481  Biso   1.000  H
  H125     1.0000 0.57159  0.47155  0.89954  Biso   1.000  H
  H126     1.0000 0.32585  0.58201  0.22232  Biso   1.000  H
  H127     1.0000 0.24881  0.71729  0.08704  Biso   1.000  H
  H128     1.0000 0.79038  0.74952  0.12481  Biso   1.000  H
  H129     1.0000 0.79038  0.74952  0.36501  Biso   1.000  H
  H130     1.0000 0.67547  0.62941  0.21574  Biso   1.000  H
  H131     1.0000 0.56501  0.82117  0.50910  Biso   1.000  H
  H132     1.0000 0.36466  0.62082  0.21269  Biso   1.000  H
  H133     1.0000 0.48371  0.00407  0.21574  Biso   1.000  H
  H134     1.0000 0.60382  0.93608  0.36501  Biso   1.000  H
  H135     1.0000 0.48371  0.82117  0.21574  Biso   1.000  H
  H136     1.0000 0.18082  0.70766  0.01539  Biso   1.000  H
  H137     1.0000 0.48371  0.71071  0.32620  Biso   1.000  H
  H138     1.0000 0.18082  0.51036  0.12585  Biso   1.000  H
  H139     1.0000 0.32585  0.71729  0.89954  Biso   1.000  H
  H140     1.0000 0.56501  0.00407  0.13444  Biso   1.000  H
  H141     1.0000 0.43631  0.39451  0.22232  Biso   1.000  H
  H142     1.0000 0.43631  0.71729  0.97658  Biso   1.000  H
  H143     1.0000 0.60382  0.93608  0.12481  Biso   1.000  H
  H144     1.0000 0.57159  0.39451  0.97658  Biso   1.000  H
  H145     1.0000 0.18082  0.70766  0.12585  Biso   1.000  H
  H146     1.0000 0.36466  0.70766  0.83155  Biso   1.000  H
  H147     1.0000 0.47512  0.32652  0.01539  Biso   1.000  H
  H148     1.0000 0.85837  0.62941  0.21574  Biso   1.000  H
  H149     1.0000 0.56196  0.62082  0.83155  Biso   1.000  H
  H150     1.0000 0.60382  0.61978  0.36501  Biso   1.000  H
  H151     1.0000 0.32585  0.71729  0.08704  Biso   1.000  H
  H152     1.0000 0.24881  0.71729  0.97658  Biso   1.000  H
  H153     1.0000 0.47512  0.70766  0.01539  Biso   1.000  H
  H154     1.0000 0.57159  0.58201  0.89954  Biso   1.000  H
  H155     1.0000 0.60382  0.85998  0.12481  Biso   1.000  H
  H156     1.0000 0.67547  0.71071  0.50910  Biso   1.000  H
  H157     1.0000 0.47408  0.85998  0.44111  Biso   1.000  H
  H158     1.0000 0.43631  0.39451  0.97658  Biso   1.000  H
  H159     1.0000 0.47408  0.74952  0.44111  Biso   1.000  H
  H160     1.0000 0.71428  0.61978  0.25455  Biso   1.000  H
  H161     1.0000 0.43631  0.71729  0.89954  Biso   1.000  H
  H162     1.0000 0.48371  0.82117  0.50910  Biso   1.000  H
  H163     1.0000 0.36466  0.70766  0.12585  Biso   1.000  H
  H164     1.0000 0.43631  0.47155  0.89954  Biso   1.000  H
  H165     1.0000 0.56501  0.62941  0.50910  Biso   1.000  H
  H166     1.0000 0.79038  0.85998  0.25455  Biso   1.000  H
  H167     1.0000 0.56501  0.00407  0.32620  Biso   1.000  H
  H168     1.0000 0.67547  0.62941  0.50910  Biso   1.000  H
  H169     1.0000 0.67547  0.71071  0.13444  Biso   1.000  H
  H170     1.0000 0.24881  0.58201  0.97658  Biso   1.000  H
  H171     1.0000 0.57159  0.39451  0.08704  Biso   1.000  H
  H172     1.0000 0.56501  0.82117  0.13444  Biso   1.000  H
  H173     1.0000 0.85837  0.71071  0.13444  Biso   1.000  H
  H174     1.0000 0.71428  0.93608  0.12481  Biso   1.000  H
  H175     1.0000 0.71428  0.61978  0.44111  Biso   1.000  H
  H176     1.0000 0.47512  0.51036  0.83155  Biso   1.000  H
  H177     1.0000 0.43631  0.47155  0.22232  Biso   1.000  H
  H178     1.0000 0.71428  0.74952  0.44111  Biso   1.000  H
  H179     1.0000 0.36466  0.62082  0.83155  Biso   1.000  H
  H180     1.0000 0.18082  0.62082  0.01539  Biso   1.000  H
  H181     1.0000 0.47512  0.32652  0.21269  Biso   1.000  H
  H182     1.0000 0.48371  0.71071  0.50910  Biso   1.000  H
  H183     1.0000 0.32585  0.39451  0.22232  Biso   1.000  H
  H184     1.0000 0.71428  0.93608  0.25455  Biso   1.000  H
  H185     1.0000 0.24881  0.58201  0.22232  Biso   1.000  H
  H186     1.0000 0.47408  0.93608  0.36501  Biso   1.000  H
  H187     1.0000 0.47512  0.51036  0.21269  Biso   1.000  H
  H188     1.0000 0.79038  0.61978  0.25455  Biso   1.000  H
  H189     1.0000 0.24881  0.47155  0.08704  Biso   1.000  H
  H190     1.0000 0.67547  0.00407  0.13444  Biso   1.000  H
  H191     1.0000 0.85837  0.82117  0.21574  Biso   1.000  H
  H192     1.0000 0.47408  0.93608  0.25455  Biso   1.000  H
  C193     1.0000 0.56446  0.58814  0.03131  Biso   1.000  C
  C194     1.0000 0.47358  0.80784  0.31287  Biso   1.000  C
  C195     1.0000 0.61703  0.63033  0.51460  Biso   1.000  C
  C196     1.0000 0.47358  0.93040  0.31287  Biso   1.000  C
  C197     1.0000 0.59240  0.73810  0.14499  Biso   1.000  C
  C198     1.0000 0.35831  0.71563  0.88490  Biso   1.000  C
  C199     1.0000 0.56104  0.32102  0.07383  Biso   1.000  C
  C200     1.0000 0.61998  0.82752  0.45575  Biso   1.000  C
  C201     1.0000 0.35529  0.72033  0.94808  Biso   1.000  C
  C202     1.0000 0.37799  0.40019  0.22282  Biso   1.000  C
  C203     1.0000 0.19508  0.52628  0.21519  Biso   1.000  C
  C204     1.0000 0.48121  0.74339  0.31028  Biso   1.000  C
  C205     1.0000 0.13569  0.59343  0.09846  Biso   1.000  C
  C206     1.0000 0.61998  0.82752  0.12647  Biso   1.000  C
  C207     1.0000 0.44244  0.34078  0.03131  Biso   1.000  C
  C208     1.0000 0.65955  0.62691  0.49484  Biso   1.000  C
  C209     1.0000 0.47104  0.83054  0.39257  Biso   1.000  C
  C210     1.0000 0.84411  0.80525  0.13194  Biso   1.000  C
  C211     1.0000 0.42310  0.56880  0.21177  Biso   1.000  C
  C212     1.0000 0.23417  0.71563  0.07088  Biso   1.000  C
  C213     1.0000 0.65955  0.98981  0.13194  Biso   1.000  C
  C214     1.0000 0.61703  0.00957  0.13536  Biso   1.000  C
  C215     1.0000 0.84411  0.74339  0.13194  Biso   1.000  C
  C216     1.0000 0.56993  0.50401  0.88490  Biso   1.000  C
  C217     1.0000 0.61703  0.63033  0.26776  Biso   1.000  C
  C218     1.0000 0.56446  0.52628  0.84581  Biso   1.000  C
  C219     1.0000 0.35831  0.56585  0.22066  Biso   1.000  C
  C220     1.0000 0.80502  0.76568  0.12647  Biso   1.000  C
  C221     1.0000 0.35831  0.56585  0.88490  Biso   1.000  C
  C222     1.0000 0.37799  0.52369  0.22282  Biso   1.000  C
  C223     1.0000 0.47358  0.80784  0.43543  Biso   1.000  C
  C224     1.0000 0.84411  0.62691  0.31028  Biso   1.000  C
  C225     1.0000 0.38058  0.58814  0.84581  Biso   1.000  C
  C226     1.0000 0.59769  0.62691  0.49484  Biso   1.000  C
  C227     1.0000 0.68484  0.88754  0.12177  Biso   1.000  C
  C228     1.0000 0.29735  0.50099  0.00602  Biso   1.000  C
  C229     1.0000 0.68182  0.62144  0.45575  Biso   1.000  C
  C230     1.0000 0.61998  0.62144  0.45575  Biso   1.000  C
  C231     1.0000 0.44773  0.59343  0.78642  Biso   1.000  C
  C232     1.0000 0.38058  0.71016  0.09317  Biso   1.000  C
  C233     1.0000 0.56446  0.52628  0.09317  Biso   1.000  C
  C234     1.0000 0.55141  0.59343  0.78642  Biso   1.000  C
  C235     1.0000 0.38058  0.34078  0.09317  Biso   1.000  C
  C236     1.0000 0.90350  0.73810  0.24313  Biso   1.000  C
  C237     1.0000 0.23417  0.56585  0.00904  Biso   1.000  C
  C238     1.0000 0.47104  0.88754  0.33557  Biso   1.000  C
  C239     1.0000 0.47574  0.95072  0.27071  Biso   1.000  C
  C240     1.0000 0.78470  0.80784  0.31287  Biso   1.000  C
  C241     1.0000 0.86387  0.76273  0.13536  Biso   1.000  C
  C242     1.0000 0.19508  0.58814  0.21519  Biso   1.000  C
  C243     1.0000 0.80502  0.62144  0.33255  Biso   1.000  C
  C244     1.0000 0.42015  0.37987  0.22066  Biso   1.000  C
  C245     1.0000 0.61998  0.95072  0.12647  Biso   1.000  C
  C246     1.0000 0.68182  0.95072  0.27071  Biso   1.000  C
  C247     1.0000 0.25449  0.52369  0.22282  Biso   1.000  C
  C248     1.0000 0.17532  0.56880  0.21177  Biso   1.000  C
  C249     1.0000 0.61998  0.95072  0.33255  Biso   1.000  C
  C250     1.0000 0.17532  0.70674  0.07383  Biso   1.000  C
  C251     1.0000 0.56993  0.37987  0.07088  Biso   1.000  C
  C252     1.0000 0.66214  0.93040  0.31287  Biso   1.000  C
  C253     1.0000 0.47104  0.83054  0.33557  Biso   1.000  C
  C254     1.0000 0.59769  0.80525  0.49484  Biso   1.000  C
  C255     1.0000 0.86387  0.76273  0.26776  Biso   1.000  C
  C256     1.0000 0.44244  0.52628  0.21519  Biso   1.000  C
  C257     1.0000 0.13569  0.59343  0.20214  Biso   1.000  C
  C258     1.0000 0.44773  0.69711  0.78642  Biso   1.000  C
  C259     1.0000 0.48121  0.80525  0.24842  Biso   1.000  C
  C260     1.0000 0.23417  0.71563  0.00904  Biso   1.000  C
  C261     1.0000 0.19508  0.71016  0.09317  Biso   1.000  C
  C262     1.0000 0.48121  0.80525  0.49484  Biso   1.000  C
  C263     1.0000 0.57209  0.40019  0.02872  Biso   1.000  C
  C264     1.0000 0.48463  0.76273  0.51460  Biso   1.000  C
  C265     1.0000 0.42015  0.50401  0.22066  Biso   1.000  C
  C266     1.0000 0.80502  0.82752  0.12647  Biso   1.000  C
  C267     1.0000 0.59240  0.63996  0.55423  Biso   1.000  C
  C268     1.0000 0.44773  0.28139  0.09846  Biso   1.000  C
  C269     1.0000 0.44773  0.59343  0.20214  Biso   1.000  C
  C270     1.0000 0.68182  0.62144  0.27071  Biso   1.000  C
  C271     1.0000 0.44244  0.71016  0.84581  Biso   1.000  C
  C272     1.0000 0.19508  0.71016  0.03131  Biso   1.000  C
  C273     1.0000 0.48463  0.76273  0.26776  Biso   1.000  C
  C274     1.0000 0.66214  0.80784  0.43543  Biso   1.000  C
  C275     1.0000 0.47574  0.82752  0.45575  Biso   1.000  C
  C276     1.0000 0.37799  0.71779  0.02872  Biso   1.000  C
  C277     1.0000 0.44244  0.34078  0.21519  Biso   1.000  C
  C278     1.0000 0.65955  0.62691  0.24842  Biso   1.000  C
  C279     1.0000 0.29735  0.50099  0.22536  Biso   1.000  C
  C280     1.0000 0.56993  0.37987  0.00904  Biso   1.000  C
  C281     1.0000 0.35529  0.44305  0.00602  Biso   1.000  C
  C282     1.0000 0.44244  0.71016  0.03131  Biso   1.000  C
  C283     1.0000 0.35831  0.37987  0.07088  Biso   1.000  C
  C284     1.0000 0.61703  0.76273  0.51460  Biso   1.000  C
  C285     1.0000 0.25449  0.52369  0.02872  Biso   1.000  C
  C286     1.0000 0.66214  0.61928  0.31287  Biso   1.000  C
  C287     1.0000 0.42310  0.32102  0.07383  Biso   1.000  C
  C288     1.0000 0.66214  0.80784  0.12431  Biso   1.000  C
  C289     1.0000 0.35529  0.44305  0.22536  Biso   1.000  C
  C290     1.0000 0.47574  0.76568  0.33255  Biso   1.000  C
  C291     1.0000 0.74184  0.83054  0.12177  Biso   1.000  C
  C292     1.0000 0.49426  0.73810  0.24313  Biso   1.000  C
  C293     1.0000 0.42015  0.37987  0.00904  Biso   1.000  C
  C294     1.0000 0.55141  0.28139  0.09846  Biso   1.000  C
  C295     1.0000 0.78470  0.80784  0.12431  Biso   1.000  C
  C296     1.0000 0.42015  0.71563  0.00904  Biso   1.000  C
  C297     1.0000 0.84411  0.80525  0.24842  Biso   1.000  C
  C298     1.0000 0.57463  0.50099  0.94808  Biso   1.000  C
  C299     1.0000 0.49426  0.73810  0.55423  Biso   1.000  C
  C300     1.0000 0.29735  0.72033  0.00602  Biso   1.000  C
  C301     1.0000 0.56104  0.56880  0.07383  Biso   1.000  C
  C302     1.0000 0.44773  0.69711  0.09846  Biso   1.000  C
  C303     1.0000 0.37799  0.71779  0.90522  Biso   1.000  C
  C304     1.0000 0.23417  0.50401  0.22066  Biso   1.000  C
  C305     1.0000 0.65955  0.74339  0.49484  Biso   1.000  C
  C306     1.0000 0.66214  0.93040  0.12431  Biso   1.000  C
  C307     1.0000 0.68484  0.83054  0.12177  Biso   1.000  C
  C308     1.0000 0.90350  0.63996  0.24313  Biso   1.000  C
  C309     1.0000 0.42015  0.71563  0.88490  Biso   1.000  C
  C310     1.0000 0.57463  0.50099  0.00602  Biso   1.000  C
  C311     1.0000 0.48121  0.74339  0.49484  Biso   1.000  C
  C312     1.0000 0.65955  0.98981  0.24842  Biso   1.000  C
  C313     1.0000 0.38058  0.71016  0.84581  Biso   1.000  C
  C314     1.0000 0.57463  0.44305  0.00602  Biso   1.000  C
  C315     1.0000 0.13569  0.69711  0.09846  Biso   1.000  C
  C316     1.0000 0.48121  0.98981  0.24842  Biso   1.000  C
  C317     1.0000 0.25449  0.71779  0.02872  Biso   1.000  C
  C318     1.0000 0.68182  0.95072  0.12647  Biso   1.000  C
  C319     1.0000 0.84411  0.62691  0.24842  Biso   1.000  C
  C320     1.0000 0.48463  0.00957  0.26776  Biso   1.000  C
  C321     1.0000 0.59240  0.63996  0.24313  Biso   1.000  C
  C322     1.0000 0.57209  0.52369  0.90522  Biso   1.000  C
  C323     1.0000 0.74184  0.83054  0.33557  Biso   1.000  C
  C324     1.0000 0.59769  0.62691  0.31028  Biso   1.000  C
  C325     1.0000 0.42015  0.50401  0.88490  Biso   1.000  C
  C326     1.0000 0.68182  0.76568  0.45575  Biso   1.000  C
  C327     1.0000 0.68484  0.61674  0.39257  Biso   1.000  C
  C328     1.0000 0.80502  0.76568  0.33255  Biso   1.000  C
  C329     1.0000 0.44773  0.28139  0.20214  Biso   1.000  C
  C330     1.0000 0.35831  0.71563  0.07088  Biso   1.000  C
  C331     1.0000 0.56446  0.58814  0.84581  Biso   1.000  C
  C332     1.0000 0.35529  0.72033  0.00602  Biso   1.000  C
  C333     1.0000 0.59769  0.98981  0.13194  Biso   1.000  C
  C334     1.0000 0.61998  0.62144  0.33255  Biso   1.000  C
  C335     1.0000 0.61703  0.00957  0.26776  Biso   1.000  C
  C336     1.0000 0.19508  0.52628  0.09317  Biso   1.000  C
  C337     1.0000 0.55141  0.59343  0.09846  Biso   1.000  C
  C338     1.0000 0.56993  0.50401  0.07088  Biso   1.000  C
  C339     1.0000 0.59240  0.73810  0.55423  Biso   1.000  C
  C340     1.0000 0.78470  0.61928  0.31287  Biso   1.000  C
  C341     1.0000 0.59769  0.80525  0.13194  Biso   1.000  C
  C342     1.0000 0.90350  0.73810  0.14499  Biso   1.000  C
  C343     1.0000 0.42310  0.32102  0.21177  Biso   1.000  C
  C344     1.0000 0.57209  0.52369  0.02872  Biso   1.000  C
  C345     1.0000 0.74184  0.61674  0.33557  Biso   1.000  C
  C346     1.0000 0.56993  0.56585  0.00904  Biso   1.000  C
  C347     1.0000 0.59240  0.04920  0.14499  Biso   1.000  C
  C348     1.0000 0.38058  0.34078  0.21519  Biso   1.000  C
  C349     1.0000 0.42310  0.70674  0.07383  Biso   1.000  C
  C350     1.0000 0.44244  0.52628  0.84581  Biso   1.000  C
  C351     1.0000 0.56446  0.34078  0.09317  Biso   1.000  C
  C352     1.0000 0.80502  0.82752  0.27071  Biso   1.000  C
  C353     1.0000 0.47574  0.76568  0.45575  Biso   1.000  C
  C354     1.0000 0.49426  0.04920  0.24313  Biso   1.000  C
  C355     1.0000 0.56446  0.34078  0.03131  Biso   1.000  C
  C356     1.0000 0.38058  0.58814  0.21519  Biso   1.000  C
  C357     1.0000 0.59240  0.04920  0.24313  Biso   1.000  C
  C358     1.0000 0.23417  0.56585  0.22066  Biso   1.000  C
  C359     1.0000 0.61703  0.76273  0.13536  Biso   1.000  C
  C360     1.0000 0.37799  0.40019  0.02872  Biso   1.000  C
  C361     1.0000 0.17532  0.56880  0.07383  Biso   1.000  C
  C362     1.0000 0.68484  0.61674  0.33557  Biso   1.000  C
  C363     1.0000 0.56104  0.56880  0.82605  Biso   1.000  C
  C364     1.0000 0.66214  0.61928  0.43543  Biso   1.000  C
  C365     1.0000 0.80502  0.62144  0.27071  Biso   1.000  C
  C366     1.0000 0.56993  0.56585  0.88490  Biso   1.000  C
  C367     1.0000 0.47574  0.95072  0.33255  Biso   1.000  C
  C368     1.0000 0.86387  0.63033  0.26776  Biso   1.000  C
  C369     1.0000 0.84411  0.74339  0.31028  Biso   1.000  C
  C370     1.0000 0.68484  0.83054  0.39257  Biso   1.000  C
  C371     1.0000 0.68182  0.76568  0.12647  Biso   1.000  C
  C372     1.0000 0.59769  0.98981  0.31028  Biso   1.000  C
  C373     1.0000 0.35529  0.50099  0.94808  Biso   1.000  C
  C374     1.0000 0.35831  0.37987  0.22066  Biso   1.000  C
  C375     1.0000 0.47574  0.82752  0.27071  Biso   1.000  C
  C376     1.0000 0.48121  0.98981  0.31028  Biso   1.000  C
  C377     1.0000 0.23417  0.50401  0.07088  Biso   1.000  C
  C378     1.0000 0.42310  0.56880  0.82605  Biso   1.000  C
  C379     1.0000 0.65955  0.74339  0.13194  Biso   1.000  C
  C380     1.0000 0.68484  0.88754  0.33557  Biso   1.000  C
  C381     1.0000 0.19508  0.58814  0.03131  Biso   1.000  C
  C382     1.0000 0.37799  0.52369  0.90522  Biso   1.000  C
  C383     1.0000 0.42310  0.70674  0.82605  Biso   1.000  C
  C384     1.0000 0.35529  0.50099  0.22536  Biso   1.000  C
  N25      1.0000 0.72321  0.61513  0.31744  Biso   1.000  N
  N26      1.0000 0.31645  0.51959  0.22650  Biso   1.000  N
  N27      1.0000 0.72321  0.61513  0.37394  Biso   1.000  N
  N28      1.0000 0.37389  0.46215  0.22650  Biso   1.000  N
  N29      1.0000 0.57577  0.46215  0.96718  Biso   1.000  N
  N30      1.0000 0.66671  0.86891  0.37394  Biso   1.000  N
  N31      1.0000 0.72321  0.86891  0.31744  Biso   1.000  N
  N32      1.0000 0.31645  0.46215  0.02462  Biso   1.000  N
  N33      1.0000 0.31645  0.51959  0.96718  Biso   1.000  N
  N34      1.0000 0.31645  0.72147  0.96718  Biso   1.000  N
  N35      1.0000 0.37389  0.72147  0.96718  Biso   1.000  N
  N36      1.0000 0.31645  0.72147  0.02462  Biso   1.000  N
  N37      1.0000 0.72321  0.86891  0.12016  Biso   1.000  N
  N38      1.0000 0.57577  0.51959  0.96718  Biso   1.000  N
  N39      1.0000 0.46943  0.86891  0.37394  Biso   1.000  N
  N40      1.0000 0.72321  0.81241  0.37394  Biso   1.000  N
  N41      1.0000 0.31645  0.46215  0.22650  Biso   1.000  N
  N42      1.0000 0.66671  0.86891  0.12016  Biso   1.000  N
  N43      1.0000 0.66671  0.61513  0.37394  Biso   1.000  N
  N44      1.0000 0.46943  0.81241  0.37394  Biso   1.000  N
  N45      1.0000 0.72321  0.81241  0.12016  Biso   1.000  N
  N46      1.0000 0.37389  0.46215  0.96718  Biso   1.000  N
  N47      1.0000 0.57577  0.46215  0.02462  Biso   1.000  N
  N48      1.0000 0.46943  0.86891  0.31744  Biso   1.000  N
  O81      1.0000 0.48291  0.62861  0.69414  Biso   1.000  O
  O82      1.0000 0.57333  0.62861  0.69414  Biso   1.000  O
  O83      1.0000 0.55320  0.06490  0.14955  Biso   1.000  O
  O84      1.0000 0.42879  0.26569  0.19758  Biso   1.000  O
  O85      1.0000 0.54246  0.68816  0.60591  Biso   1.000  O
  O86      1.0000 0.49882  0.75704  0.56993  Biso   1.000  O
  O87      1.0000 0.49882  0.69890  0.56993  Biso   1.000  O
  O88      1.0000 0.11999  0.57449  0.13766  Biso   1.000  O
  O89      1.0000 0.48693  0.69255  0.07952  Biso   1.000  O
  O90      1.0000 0.49882  0.06490  0.26207  Biso   1.000  O
  O91      1.0000 0.95518  0.68816  0.19319  Biso   1.000  O
  O92      1.0000 0.49919  0.23069  0.14992  Biso   1.000  O
  O93      1.0000 0.11999  0.63263  0.19758  Biso   1.000  O
  O94      1.0000 0.55880  0.14186  0.11953  Biso   1.000  O
  O95      1.0000 0.61134  0.06490  0.20393  Biso   1.000  O
  O96      1.0000 0.11999  0.69255  0.07952  Biso   1.000  O
  O97      1.0000 0.11999  0.57449  0.19758  Biso   1.000  O
  O98      1.0000 0.04341  0.62861  0.22406  Biso   1.000  O
  O99      1.0000 0.55320  0.06490  0.26207  Biso   1.000  O
  O100     1.0000 0.55880  0.61450  0.20953  Biso   1.000  O
  O101     1.0000 0.61134  0.69890  0.14955  Biso   1.000  O
  O102     1.0000 0.48693  0.26569  0.19758  Biso   1.000  O
  O103     1.0000 0.08499  0.64489  0.14992  Biso   1.000  O
  O104     1.0000 0.48291  0.71903  0.13364  Biso   1.000  O
  O105     1.0000 0.61134  0.06490  0.14955  Biso   1.000  O
  O106     1.0000 0.42879  0.69255  0.13766  Biso   1.000  O
  O107     1.0000 0.61134  0.64452  0.56993  Biso   1.000  O
  O108     1.0000 0.55320  0.75704  0.14955  Biso   1.000  O
  O109     1.0000 0.57333  0.18911  0.13364  Biso   1.000  O
  O110     1.0000 0.91920  0.75704  0.14955  Biso   1.000  O
  O111     1.0000 0.54246  0.68816  0.19319  Biso   1.000  O
  O112     1.0000 0.99616  0.61450  0.20953  Biso   1.000  O
  O113     1.0000 0.54685  0.63263  0.77072  Biso   1.000  O
  O114     1.0000 0.48693  0.69255  0.77072  Biso   1.000  O
  O115     1.0000 0.91920  0.64452  0.26207  Biso   1.000  O
  O116     1.0000 0.48693  0.57449  0.77072  Biso   1.000  O
  O117     1.0000 0.48291  0.71903  0.69414  Biso   1.000  O
  O118     1.0000 0.11999  0.63263  0.07952  Biso   1.000  O
  O119     1.0000 0.48291  0.62861  0.22406  Biso   1.000  O
  O120     1.0000 0.99616  0.70450  0.20953  Biso   1.000  O
  O121     1.0000 0.54685  0.63263  0.07952  Biso   1.000  O
  O122     1.0000 0.46880  0.70450  0.64689  Biso   1.000  O
  O123     1.0000 0.54685  0.57449  0.77072  Biso   1.000  O
  O124     1.0000 0.55880  0.14186  0.20953  Biso   1.000  O
  O125     1.0000 0.49882  0.75704  0.20393  Biso   1.000  O
  O126     1.0000 0.54246  0.10088  0.19319  Biso   1.000  O
  O127     1.0000 0.42879  0.63263  0.77072  Biso   1.000  O
  O128     1.0000 0.49882  0.06490  0.20393  Biso   1.000  O
  O129     1.0000 0.48291  0.18911  0.22406  Biso   1.000  O
  O130     1.0000 0.42879  0.63263  0.19758  Biso   1.000  O
  O131     1.0000 0.91920  0.64452  0.20393  Biso   1.000  O
  O132     1.0000 0.49919  0.64489  0.73572  Biso   1.000  O
  O133     1.0000 0.48693  0.26569  0.07952  Biso   1.000  O
  O134     1.0000 0.55880  0.70450  0.64689  Biso   1.000  O
  O135     1.0000 0.54685  0.57449  0.13766  Biso   1.000  O
  O136     1.0000 0.42879  0.26569  0.13766  Biso   1.000  O
  O137     1.0000 0.04341  0.62861  0.13364  Biso   1.000  O
  O138     1.0000 0.46880  0.14186  0.20953  Biso   1.000  O
  O139     1.0000 0.48693  0.57449  0.19758  Biso   1.000  O
  O140     1.0000 0.54685  0.26569  0.13766  Biso   1.000  O
  O141     1.0000 0.57333  0.62861  0.13364  Biso   1.000  O
  O142     1.0000 0.55880  0.70450  0.11953  Biso   1.000  O
  O143     1.0000 0.55320  0.64452  0.56993  Biso   1.000  O
  O144     1.0000 0.61134  0.69890  0.56993  Biso   1.000  O
  O145     1.0000 0.42879  0.69255  0.77072  Biso   1.000  O
  O146     1.0000 0.99616  0.70450  0.11953  Biso   1.000  O
  O147     1.0000 0.91920  0.75704  0.20393  Biso   1.000  O
  O148     1.0000 0.61134  0.64452  0.20393  Biso   1.000  O
  O149     1.0000 0.11999  0.69255  0.13766  Biso   1.000  O
  O150     1.0000 0.91920  0.69890  0.26207  Biso   1.000  O
  O151     1.0000 0.55320  0.75704  0.56993  Biso   1.000  O
  O152     1.0000 0.48291  0.18911  0.13364  Biso   1.000  O
  O153     1.0000 0.91920  0.69890  0.14955  Biso   1.000  O
  O154     1.0000 0.55880  0.61450  0.64689  Biso   1.000  O
  O155     1.0000 0.49919  0.64489  0.14992  Biso   1.000  O
  O156     1.0000 0.46880  0.70450  0.20953  Biso   1.000  O
  O157     1.0000 0.49882  0.69890  0.26207  Biso   1.000  O
  O158     1.0000 0.54685  0.26569  0.07952  Biso   1.000  O
  O159     1.0000 0.04341  0.71903  0.13364  Biso   1.000  O
