data_image0
_cell_length_a       35.0858
_cell_length_b       35.0858
_cell_length_c       35.0858
_cell_angle_alpha    60
_cell_angle_beta     60
_cell_angle_gamma    60

_symmetry_space_group_name_H-M    "P 1"
_symmetry_int_tables_number       1

loop_
  _symmetry_equiv_pos_as_xyz
  'x, y, z'

loop_
  _atom_site_label
  _atom_site_occupancy
  _atom_site_fract_x
  _atom_site_fract_y
  _atom_site_fract_z
  _atom_site_thermal_displace_type
  _atom_site_B_iso_or_equiv
  _atom_site_type_symbol
  C1       1.0000 0.50993  0.03637  0.49007  Biso   1.000  C
  C2       1.0000 0.03637  0.50993  0.96363  Biso   1.000  C
  C3       1.0000 0.49007  0.96363  0.50993  Biso   1.000  C
  C4       1.0000 0.96363  0.49007  0.03637  Biso   1.000  C
  C5       1.0000 0.50993  0.49007  0.96363  Biso   1.000  C
  C6       1.0000 0.03637  0.96363  0.49007  Biso   1.000  C
  C7       1.0000 0.49007  0.50993  0.03637  Biso   1.000  C
  C8       1.0000 0.96363  0.03637  0.50993  Biso   1.000  C
  C9       1.0000 0.50993  0.96363  0.03637  Biso   1.000  C
  C10      1.0000 0.03637  0.49007  0.50993  Biso   1.000  C
  C11      1.0000 0.49007  0.03637  0.96363  Biso   1.000  C
  C12      1.0000 0.96363  0.50993  0.49007  Biso   1.000  C
  C13      1.0000 0.51030  0.06230  0.22730  Biso   1.000  C
  C14      1.0000 0.52670  0.11730  0.27070  Biso   1.000  C
  C15      1.0000 0.53150  0.09090  0.34190  Biso   1.000  C
  C16      1.0000 0.49560  0.98600  0.37840  Biso   1.000  C
  C17      1.0000 0.49180  0.00960  0.30640  Biso   1.000  C
  C18      1.0000 0.06230  0.51030  0.20010  Biso   1.000  C
  C19      1.0000 0.11730  0.52670  0.08530  Biso   1.000  C
  C20      1.0000 0.09090  0.53150  0.03570  Biso   1.000  C
  C21      1.0000 0.98600  0.49560  0.14000  Biso   1.000  C
  C22      1.0000 0.00960  0.49180  0.19220  Biso   1.000  C
  C23      1.0000 0.22730  0.20010  0.51030  Biso   1.000  C
  C24      1.0000 0.27070  0.08530  0.52670  Biso   1.000  C
  C25      1.0000 0.34190  0.03570  0.53150  Biso   1.000  C
  C26      1.0000 0.37840  0.14000  0.49560  Biso   1.000  C
  C27      1.0000 0.30640  0.19220  0.49180  Biso   1.000  C
  C28      1.0000 0.20010  0.22730  0.06230  Biso   1.000  C
  C29      1.0000 0.08530  0.27070  0.11730  Biso   1.000  C
  C30      1.0000 0.03570  0.34190  0.09090  Biso   1.000  C
  C31      1.0000 0.14000  0.37840  0.98600  Biso   1.000  C
  C32      1.0000 0.19220  0.30640  0.00960  Biso   1.000  C
  C33      1.0000 0.51030  0.22730  0.20010  Biso   1.000  C
  C34      1.0000 0.52670  0.27070  0.08530  Biso   1.000  C
  C35      1.0000 0.53150  0.34190  0.03570  Biso   1.000  C
  C36      1.0000 0.49560  0.37840  0.14000  Biso   1.000  C
  C37      1.0000 0.49180  0.30640  0.19220  Biso   1.000  C
  C38      1.0000 0.06230  0.20010  0.22730  Biso   1.000  C
  C39      1.0000 0.11730  0.08530  0.27070  Biso   1.000  C
  C40      1.0000 0.09090  0.03570  0.34190  Biso   1.000  C
  C41      1.0000 0.98600  0.14000  0.37840  Biso   1.000  C
  C42      1.0000 0.00960  0.19220  0.30640  Biso   1.000  C
  C43      1.0000 0.22730  0.51030  0.06230  Biso   1.000  C
  C44      1.0000 0.27070  0.52670  0.11730  Biso   1.000  C
  C45      1.0000 0.34190  0.53150  0.09090  Biso   1.000  C
  C46      1.0000 0.37840  0.49560  0.98600  Biso   1.000  C
  C47      1.0000 0.30640  0.49180  0.00960  Biso   1.000  C
  C48      1.0000 0.20010  0.06230  0.51030  Biso   1.000  C
  C49      1.0000 0.08530  0.11730  0.52670  Biso   1.000  C
  C50      1.0000 0.03570  0.09090  0.53150  Biso   1.000  C
  C51      1.0000 0.14000  0.98600  0.49560  Biso   1.000  C
  C52      1.0000 0.19220  0.00960  0.49180  Biso   1.000  C
  C53      1.0000 0.51030  0.20010  0.06230  Biso   1.000  C
  C54      1.0000 0.52670  0.08530  0.11730  Biso   1.000  C
  C55      1.0000 0.53150  0.03570  0.09090  Biso   1.000  C
  C56      1.0000 0.49560  0.14000  0.98600  Biso   1.000  C
  C57      1.0000 0.49180  0.19220  0.00960  Biso   1.000  C
  C58      1.0000 0.06230  0.22730  0.51030  Biso   1.000  C
  C59      1.0000 0.11730  0.27070  0.52670  Biso   1.000  C
  C60      1.0000 0.09090  0.34190  0.53150  Biso   1.000  C
  C61      1.0000 0.98600  0.37840  0.49560  Biso   1.000  C
  C62      1.0000 0.00960  0.30640  0.49180  Biso   1.000  C
  C63      1.0000 0.22730  0.06230  0.20010  Biso   1.000  C
  C64      1.0000 0.27070  0.11730  0.08530  Biso   1.000  C
  C65      1.0000 0.34190  0.09090  0.03570  Biso   1.000  C
  C66      1.0000 0.37840  0.98600  0.14000  Biso   1.000  C
  C67      1.0000 0.30640  0.00960  0.19220  Biso   1.000  C
  C68      1.0000 0.20010  0.51030  0.22730  Biso   1.000  C
  C69      1.0000 0.08530  0.52670  0.27070  Biso   1.000  C
  C70      1.0000 0.03570  0.53150  0.34190  Biso   1.000  C
  C71      1.0000 0.14000  0.49560  0.37840  Biso   1.000  C
  C72      1.0000 0.19220  0.49180  0.30640  Biso   1.000  C
  C73      1.0000 0.48970  0.93770  0.77270  Biso   1.000  C
  C74      1.0000 0.47330  0.88270  0.72930  Biso   1.000  C
  C75      1.0000 0.46850  0.90910  0.65810  Biso   1.000  C
  C76      1.0000 0.50440  0.01400  0.62160  Biso   1.000  C
  C77      1.0000 0.50820  0.99040  0.69360  Biso   1.000  C
  C78      1.0000 0.93770  0.48970  0.79990  Biso   1.000  C
  C79      1.0000 0.88270  0.47330  0.91470  Biso   1.000  C
  C80      1.0000 0.90910  0.46850  0.96430  Biso   1.000  C
  C81      1.0000 0.01400  0.50440  0.86000  Biso   1.000  C
  C82      1.0000 0.99040  0.50820  0.80780  Biso   1.000  C
  C83      1.0000 0.77270  0.79990  0.48970  Biso   1.000  C
  C84      1.0000 0.72930  0.91470  0.47330  Biso   1.000  C
  C85      1.0000 0.65810  0.96430  0.46850  Biso   1.000  C
  C86      1.0000 0.62160  0.86000  0.50440  Biso   1.000  C
  C87      1.0000 0.69360  0.80780  0.50820  Biso   1.000  C
  C88      1.0000 0.79990  0.77270  0.93770  Biso   1.000  C
  C89      1.0000 0.91470  0.72930  0.88270  Biso   1.000  C
  C90      1.0000 0.96430  0.65810  0.90910  Biso   1.000  C
  C91      1.0000 0.86000  0.62160  0.01400  Biso   1.000  C
  C92      1.0000 0.80780  0.69360  0.99040  Biso   1.000  C
  C93      1.0000 0.48970  0.77270  0.79990  Biso   1.000  C
  C94      1.0000 0.47330  0.72930  0.91470  Biso   1.000  C
  C95      1.0000 0.46850  0.65810  0.96430  Biso   1.000  C
  C96      1.0000 0.50440  0.62160  0.86000  Biso   1.000  C
  C97      1.0000 0.50820  0.69360  0.80780  Biso   1.000  C
  C98      1.0000 0.93770  0.79990  0.77270  Biso   1.000  C
  C99      1.0000 0.88270  0.91470  0.72930  Biso   1.000  C
  C100     1.0000 0.90910  0.96430  0.65810  Biso   1.000  C
  C101     1.0000 0.01400  0.86000  0.62160  Biso   1.000  C
  C102     1.0000 0.99040  0.80780  0.69360  Biso   1.000  C
  C103     1.0000 0.77270  0.48970  0.93770  Biso   1.000  C
  C104     1.0000 0.72930  0.47330  0.88270  Biso   1.000  C
  C105     1.0000 0.65810  0.46850  0.90910  Biso   1.000  C
  C106     1.0000 0.62160  0.50440  0.01400  Biso   1.000  C
  C107     1.0000 0.69360  0.50820  0.99040  Biso   1.000  C
  C108     1.0000 0.79990  0.93770  0.48970  Biso   1.000  C
  C109     1.0000 0.91470  0.88270  0.47330  Biso   1.000  C
  C110     1.0000 0.96430  0.90910  0.46850  Biso   1.000  C
  C111     1.0000 0.86000  0.01400  0.50440  Biso   1.000  C
  C112     1.0000 0.80780  0.99040  0.50820  Biso   1.000  C
  C113     1.0000 0.48970  0.79990  0.93770  Biso   1.000  C
  C114     1.0000 0.47330  0.91470  0.88270  Biso   1.000  C
  C115     1.0000 0.46850  0.96430  0.90910  Biso   1.000  C
  C116     1.0000 0.50440  0.86000  0.01400  Biso   1.000  C
  C117     1.0000 0.50820  0.80780  0.99040  Biso   1.000  C
  C118     1.0000 0.93770  0.77270  0.48970  Biso   1.000  C
  C119     1.0000 0.88270  0.72930  0.47330  Biso   1.000  C
  C120     1.0000 0.90910  0.65810  0.46850  Biso   1.000  C
  C121     1.0000 0.01400  0.62160  0.50440  Biso   1.000  C
  C122     1.0000 0.99040  0.69360  0.50820  Biso   1.000  C
  C123     1.0000 0.77270  0.93770  0.79990  Biso   1.000  C
  C124     1.0000 0.72930  0.88270  0.91470  Biso   1.000  C
  C125     1.0000 0.65810  0.90910  0.96430  Biso   1.000  C
  C126     1.0000 0.62160  0.01400  0.86000  Biso   1.000  C
  C127     1.0000 0.69360  0.99040  0.80780  Biso   1.000  C
  C128     1.0000 0.79990  0.48970  0.77270  Biso   1.000  C
  C129     1.0000 0.91470  0.47330  0.72930  Biso   1.000  C
  C130     1.0000 0.96430  0.46850  0.65810  Biso   1.000  C
  C131     1.0000 0.86000  0.50440  0.62160  Biso   1.000  C
  C132     1.0000 0.80780  0.50820  0.69360  Biso   1.000  C
  C133     1.0000 0.50680  0.12460  0.19640  Biso   1.000  C
  C134     1.0000 0.50880  0.06720  0.27980  Biso   1.000  C
  C135     1.0000 0.52000  0.08980  0.29260  Biso   1.000  C
  C136     1.0000 0.52210  0.07450  0.33550  Biso   1.000  C
  C137     1.0000 0.51070  0.03510  0.37110  Biso   1.000  C
  C138     1.0000 0.50150  0.01390  0.35650  Biso   1.000  C
  C139     1.0000 0.49940  0.02740  0.31300  Biso   1.000  C
  C140     1.0000 0.51190  0.02430  0.41670  Biso   1.000  C
  C141     1.0000 0.12460  0.50680  0.17220  Biso   1.000  C
  C142     1.0000 0.06720  0.50880  0.14420  Biso   1.000  C
  C143     1.0000 0.08980  0.52000  0.09760  Biso   1.000  C
  C144     1.0000 0.07450  0.52210  0.06790  Biso   1.000  C
  C145     1.0000 0.03510  0.51070  0.08310  Biso   1.000  C
  C146     1.0000 0.01390  0.50150  0.12810  Biso   1.000  C
  C147     1.0000 0.02740  0.49940  0.16020  Biso   1.000  C
  C148     1.0000 0.02430  0.51190  0.04710  Biso   1.000  C
  C149     1.0000 0.19640  0.17220  0.50680  Biso   1.000  C
  C150     1.0000 0.27980  0.14420  0.50880  Biso   1.000  C
  C151     1.0000 0.29260  0.09760  0.52000  Biso   1.000  C
  C152     1.0000 0.33550  0.06790  0.52210  Biso   1.000  C
  C153     1.0000 0.37110  0.08310  0.51070  Biso   1.000  C
  C154     1.0000 0.35650  0.12810  0.50150  Biso   1.000  C
  C155     1.0000 0.31300  0.16020  0.49940  Biso   1.000  C
  C156     1.0000 0.41670  0.04710  0.51190  Biso   1.000  C
  C157     1.0000 0.17220  0.19640  0.12460  Biso   1.000  C
  C158     1.0000 0.14420  0.27980  0.06720  Biso   1.000  C
  C159     1.0000 0.09760  0.29260  0.08980  Biso   1.000  C
  C160     1.0000 0.06790  0.33550  0.07450  Biso   1.000  C
  C161     1.0000 0.08310  0.37110  0.03510  Biso   1.000  C
  C162     1.0000 0.12810  0.35650  0.01390  Biso   1.000  C
  C163     1.0000 0.16020  0.31300  0.02740  Biso   1.000  C
  C164     1.0000 0.04710  0.41670  0.02430  Biso   1.000  C
  C165     1.0000 0.50680  0.19640  0.17220  Biso   1.000  C
  C166     1.0000 0.50880  0.27980  0.14420  Biso   1.000  C
  C167     1.0000 0.52000  0.29260  0.09760  Biso   1.000  C
  C168     1.0000 0.52210  0.33550  0.06790  Biso   1.000  C
  C169     1.0000 0.51070  0.37110  0.08310  Biso   1.000  C
  C170     1.0000 0.50150  0.35650  0.12810  Biso   1.000  C
  C171     1.0000 0.49940  0.31300  0.16020  Biso   1.000  C
  C172     1.0000 0.51190  0.41670  0.04710  Biso   1.000  C
  C173     1.0000 0.12460  0.17220  0.19640  Biso   1.000  C
  C174     1.0000 0.06720  0.14420  0.27980  Biso   1.000  C
  C175     1.0000 0.08980  0.09760  0.29260  Biso   1.000  C
  C176     1.0000 0.07450  0.06790  0.33550  Biso   1.000  C
  C177     1.0000 0.03510  0.08310  0.37110  Biso   1.000  C
  C178     1.0000 0.01390  0.12810  0.35650  Biso   1.000  C
  C179     1.0000 0.02740  0.16020  0.31300  Biso   1.000  C
  C180     1.0000 0.02430  0.04710  0.41670  Biso   1.000  C
  C181     1.0000 0.19640  0.50680  0.12460  Biso   1.000  C
  C182     1.0000 0.27980  0.50880  0.06720  Biso   1.000  C
  C183     1.0000 0.29260  0.52000  0.08980  Biso   1.000  C
  C184     1.0000 0.33550  0.52210  0.07450  Biso   1.000  C
  C185     1.0000 0.37110  0.51070  0.03510  Biso   1.000  C
  C186     1.0000 0.35650  0.50150  0.01390  Biso   1.000  C
  C187     1.0000 0.31300  0.49940  0.02740  Biso   1.000  C
  C188     1.0000 0.41670  0.51190  0.02430  Biso   1.000  C
  C189     1.0000 0.17220  0.12460  0.50680  Biso   1.000  C
  C190     1.0000 0.14420  0.06720  0.50880  Biso   1.000  C
  C191     1.0000 0.09760  0.08980  0.52000  Biso   1.000  C
  C192     1.0000 0.06790  0.07450  0.52210  Biso   1.000  C
  C193     1.0000 0.08310  0.03510  0.51070  Biso   1.000  C
  C194     1.0000 0.12810  0.01390  0.50150  Biso   1.000  C
  C195     1.0000 0.16020  0.02740  0.49940  Biso   1.000  C
  C196     1.0000 0.04710  0.02430  0.51190  Biso   1.000  C
  C197     1.0000 0.50680  0.17220  0.12460  Biso   1.000  C
  C198     1.0000 0.50880  0.14420  0.06720  Biso   1.000  C
  C199     1.0000 0.52000  0.09760  0.08980  Biso   1.000  C
  C200     1.0000 0.52210  0.06790  0.07450  Biso   1.000  C
  C201     1.0000 0.51070  0.08310  0.03510  Biso   1.000  C
  C202     1.0000 0.50150  0.12810  0.01390  Biso   1.000  C
  C203     1.0000 0.49940  0.16020  0.02740  Biso   1.000  C
  C204     1.0000 0.51190  0.04710  0.02430  Biso   1.000  C
  C205     1.0000 0.12460  0.19640  0.50680  Biso   1.000  C
  C206     1.0000 0.06720  0.27980  0.50880  Biso   1.000  C
  C207     1.0000 0.08980  0.29260  0.52000  Biso   1.000  C
  C208     1.0000 0.07450  0.33550  0.52210  Biso   1.000  C
  C209     1.0000 0.03510  0.37110  0.51070  Biso   1.000  C
  C210     1.0000 0.01390  0.35650  0.50150  Biso   1.000  C
  C211     1.0000 0.02740  0.31300  0.49940  Biso   1.000  C
  C212     1.0000 0.02430  0.41670  0.51190  Biso   1.000  C
  C213     1.0000 0.19640  0.12460  0.17220  Biso   1.000  C
  C214     1.0000 0.27980  0.06720  0.14420  Biso   1.000  C
  C215     1.0000 0.29260  0.08980  0.09760  Biso   1.000  C
  C216     1.0000 0.33550  0.07450  0.06790  Biso   1.000  C
  C217     1.0000 0.37110  0.03510  0.08310  Biso   1.000  C
  C218     1.0000 0.35650  0.01390  0.12810  Biso   1.000  C
  C219     1.0000 0.31300  0.02740  0.16020  Biso   1.000  C
  C220     1.0000 0.41670  0.02430  0.04710  Biso   1.000  C
  C221     1.0000 0.17220  0.50680  0.19640  Biso   1.000  C
  C222     1.0000 0.14420  0.50880  0.27980  Biso   1.000  C
  C223     1.0000 0.09760  0.52000  0.29260  Biso   1.000  C
  C224     1.0000 0.06790  0.52210  0.33550  Biso   1.000  C
  C225     1.0000 0.08310  0.51070  0.37110  Biso   1.000  C
  C226     1.0000 0.12810  0.50150  0.35650  Biso   1.000  C
  C227     1.0000 0.16020  0.49940  0.31300  Biso   1.000  C
  C228     1.0000 0.04710  0.51190  0.41670  Biso   1.000  C
  C229     1.0000 0.49320  0.87540  0.80360  Biso   1.000  C
  C230     1.0000 0.49120  0.93280  0.72020  Biso   1.000  C
  C231     1.0000 0.48000  0.91020  0.70740  Biso   1.000  C
  C232     1.0000 0.47790  0.92550  0.66450  Biso   1.000  C
  C233     1.0000 0.48930  0.96490  0.62890  Biso   1.000  C
  C234     1.0000 0.49850  0.98610  0.64350  Biso   1.000  C
  C235     1.0000 0.50060  0.97260  0.68700  Biso   1.000  C
  C236     1.0000 0.48810  0.97570  0.58330  Biso   1.000  C
  C237     1.0000 0.87540  0.49320  0.82780  Biso   1.000  C
  C238     1.0000 0.93280  0.49120  0.85580  Biso   1.000  C
  C239     1.0000 0.91020  0.48000  0.90240  Biso   1.000  C
  C240     1.0000 0.92550  0.47790  0.93210  Biso   1.000  C
  C241     1.0000 0.96490  0.48930  0.91690  Biso   1.000  C
  C242     1.0000 0.98610  0.49850  0.87190  Biso   1.000  C
  C243     1.0000 0.97260  0.50060  0.83980  Biso   1.000  C
  C244     1.0000 0.97570  0.48810  0.95290  Biso   1.000  C
  C245     1.0000 0.80360  0.82780  0.49320  Biso   1.000  C
  C246     1.0000 0.72020  0.85580  0.49120  Biso   1.000  C
  C247     1.0000 0.70740  0.90240  0.48000  Biso   1.000  C
  C248     1.0000 0.66450  0.93210  0.47790  Biso   1.000  C
  C249     1.0000 0.62890  0.91690  0.48930  Biso   1.000  C
  C250     1.0000 0.64350  0.87190  0.49850  Biso   1.000  C
  C251     1.0000 0.68700  0.83980  0.50060  Biso   1.000  C
  C252     1.0000 0.58330  0.95290  0.48810  Biso   1.000  C
  C253     1.0000 0.82780  0.80360  0.87540  Biso   1.000  C
  C254     1.0000 0.85580  0.72020  0.93280  Biso   1.000  C
  C255     1.0000 0.90240  0.70740  0.91020  Biso   1.000  C
  C256     1.0000 0.93210  0.66450  0.92550  Biso   1.000  C
  C257     1.0000 0.91690  0.62890  0.96490  Biso   1.000  C
  C258     1.0000 0.87190  0.64350  0.98610  Biso   1.000  C
  C259     1.0000 0.83980  0.68700  0.97260  Biso   1.000  C
  C260     1.0000 0.95290  0.58330  0.97570  Biso   1.000  C
  C261     1.0000 0.49320  0.80360  0.82780  Biso   1.000  C
  C262     1.0000 0.49120  0.72020  0.85580  Biso   1.000  C
  C263     1.0000 0.48000  0.70740  0.90240  Biso   1.000  C
  C264     1.0000 0.47790  0.66450  0.93210  Biso   1.000  C
  C265     1.0000 0.48930  0.62890  0.91690  Biso   1.000  C
  C266     1.0000 0.49850  0.64350  0.87190  Biso   1.000  C
  C267     1.0000 0.50060  0.68700  0.83980  Biso   1.000  C
  C268     1.0000 0.48810  0.58330  0.95290  Biso   1.000  C
  C269     1.0000 0.87540  0.82780  0.80360  Biso   1.000  C
  C270     1.0000 0.93280  0.85580  0.72020  Biso   1.000  C
  C271     1.0000 0.91020  0.90240  0.70740  Biso   1.000  C
  C272     1.0000 0.92550  0.93210  0.66450  Biso   1.000  C
  C273     1.0000 0.96490  0.91690  0.62890  Biso   1.000  C
  C274     1.0000 0.98610  0.87190  0.64350  Biso   1.000  C
  C275     1.0000 0.97260  0.83980  0.68700  Biso   1.000  C
  C276     1.0000 0.97570  0.95290  0.58330  Biso   1.000  C
  C277     1.0000 0.80360  0.49320  0.87540  Biso   1.000  C
  C278     1.0000 0.72020  0.49120  0.93280  Biso   1.000  C
  C279     1.0000 0.70740  0.48000  0.91020  Biso   1.000  C
  C280     1.0000 0.66450  0.47790  0.92550  Biso   1.000  C
  C281     1.0000 0.62890  0.48930  0.96490  Biso   1.000  C
  C282     1.0000 0.64350  0.49850  0.98610  Biso   1.000  C
  C283     1.0000 0.68700  0.50060  0.97260  Biso   1.000  C
  C284     1.0000 0.58330  0.48810  0.97570  Biso   1.000  C
  C285     1.0000 0.82780  0.87540  0.49320  Biso   1.000  C
  C286     1.0000 0.85580  0.93280  0.49120  Biso   1.000  C
  C287     1.0000 0.90240  0.91020  0.48000  Biso   1.000  C
  C288     1.0000 0.93210  0.92550  0.47790  Biso   1.000  C
  C289     1.0000 0.91690  0.96490  0.48930  Biso   1.000  C
  C290     1.0000 0.87190  0.98610  0.49850  Biso   1.000  C
  C291     1.0000 0.83980  0.97260  0.50060  Biso   1.000  C
  C292     1.0000 0.95290  0.97570  0.48810  Biso   1.000  C
  C293     1.0000 0.49320  0.82780  0.87540  Biso   1.000  C
  C294     1.0000 0.49120  0.85580  0.93280  Biso   1.000  C
  C295     1.0000 0.48000  0.90240  0.91020  Biso   1.000  C
  C296     1.0000 0.47790  0.93210  0.92550  Biso   1.000  C
  C297     1.0000 0.48930  0.91690  0.96490  Biso   1.000  C
  C298     1.0000 0.49850  0.87190  0.98610  Biso   1.000  C
  C299     1.0000 0.50060  0.83980  0.97260  Biso   1.000  C
  C300     1.0000 0.48810  0.95290  0.97570  Biso   1.000  C
  C301     1.0000 0.87540  0.80360  0.49320  Biso   1.000  C
  C302     1.0000 0.93280  0.72020  0.49120  Biso   1.000  C
  C303     1.0000 0.91020  0.70740  0.48000  Biso   1.000  C
  C304     1.0000 0.92550  0.66450  0.47790  Biso   1.000  C
  C305     1.0000 0.96490  0.62890  0.48930  Biso   1.000  C
  C306     1.0000 0.98610  0.64350  0.49850  Biso   1.000  C
  C307     1.0000 0.97260  0.68700  0.50060  Biso   1.000  C
  C308     1.0000 0.97570  0.58330  0.48810  Biso   1.000  C
  C309     1.0000 0.80360  0.87540  0.82780  Biso   1.000  C
  C310     1.0000 0.72020  0.93280  0.85580  Biso   1.000  C
  C311     1.0000 0.70740  0.91020  0.90240  Biso   1.000  C
  C312     1.0000 0.66450  0.92550  0.93210  Biso   1.000  C
  C313     1.0000 0.62890  0.96490  0.91690  Biso   1.000  C
  C314     1.0000 0.64350  0.98610  0.87190  Biso   1.000  C
  C315     1.0000 0.68700  0.97260  0.83980  Biso   1.000  C
  C316     1.0000 0.58330  0.97570  0.95290  Biso   1.000  C
  C317     1.0000 0.82780  0.49320  0.80360  Biso   1.000  C
  C318     1.0000 0.85580  0.49120  0.72020  Biso   1.000  C
  C319     1.0000 0.90240  0.48000  0.70740  Biso   1.000  C
  C320     1.0000 0.93210  0.47790  0.66450  Biso   1.000  C
  C321     1.0000 0.91690  0.48930  0.62890  Biso   1.000  C
  C322     1.0000 0.87190  0.49850  0.64350  Biso   1.000  C
  C323     1.0000 0.83980  0.50060  0.68700  Biso   1.000  C
  C324     1.0000 0.95290  0.48810  0.58330  Biso   1.000  C
  C325     1.0000 0.50820  0.15720  0.20860  Biso   1.000  C
  C326     1.0000 0.50880  0.08420  0.23360  Biso   1.000  C
  C327     1.0000 0.15720  0.50820  0.12600  Biso   1.000  C
  C328     1.0000 0.08420  0.50880  0.17340  Biso   1.000  C
  C329     1.0000 0.20860  0.12600  0.50820  Biso   1.000  C
  C330     1.0000 0.23360  0.17340  0.50880  Biso   1.000  C
  C331     1.0000 0.12600  0.20860  0.15720  Biso   1.000  C
  C332     1.0000 0.17340  0.23360  0.08420  Biso   1.000  C
  C333     1.0000 0.50820  0.20860  0.12600  Biso   1.000  C
  C334     1.0000 0.50880  0.23360  0.17340  Biso   1.000  C
  C335     1.0000 0.15720  0.12600  0.20860  Biso   1.000  C
  C336     1.0000 0.08420  0.17340  0.23360  Biso   1.000  C
  C337     1.0000 0.20860  0.50820  0.15720  Biso   1.000  C
  C338     1.0000 0.23360  0.50880  0.08420  Biso   1.000  C
  C339     1.0000 0.12600  0.15720  0.50820  Biso   1.000  C
  C340     1.0000 0.17340  0.08420  0.50880  Biso   1.000  C
  C341     1.0000 0.50820  0.12600  0.15720  Biso   1.000  C
  C342     1.0000 0.50880  0.17340  0.08420  Biso   1.000  C
  C343     1.0000 0.15720  0.20860  0.50820  Biso   1.000  C
  C344     1.0000 0.08420  0.23360  0.50880  Biso   1.000  C
  C345     1.0000 0.20860  0.15720  0.12600  Biso   1.000  C
  C346     1.0000 0.23360  0.08420  0.17340  Biso   1.000  C
  C347     1.0000 0.12600  0.50820  0.20860  Biso   1.000  C
  C348     1.0000 0.17340  0.50880  0.23360  Biso   1.000  C
  C349     1.0000 0.49180  0.84280  0.79140  Biso   1.000  C
  C350     1.0000 0.49120  0.91580  0.76640  Biso   1.000  C
  C351     1.0000 0.84280  0.49180  0.87400  Biso   1.000  C
  C352     1.0000 0.91580  0.49120  0.82660  Biso   1.000  C
  C353     1.0000 0.79140  0.87400  0.49180  Biso   1.000  C
  C354     1.0000 0.76640  0.82660  0.49120  Biso   1.000  C
  C355     1.0000 0.87400  0.79140  0.84280  Biso   1.000  C
  C356     1.0000 0.82660  0.76640  0.91580  Biso   1.000  C
  C357     1.0000 0.49180  0.79140  0.87400  Biso   1.000  C
  C358     1.0000 0.49120  0.76640  0.82660  Biso   1.000  C
  C359     1.0000 0.84280  0.87400  0.79140  Biso   1.000  C
  C360     1.0000 0.91580  0.82660  0.76640  Biso   1.000  C
  C361     1.0000 0.79140  0.49180  0.84280  Biso   1.000  C
  C362     1.0000 0.76640  0.49120  0.91580  Biso   1.000  C
  C363     1.0000 0.87400  0.84280  0.49180  Biso   1.000  C
  C364     1.0000 0.82660  0.91580  0.49120  Biso   1.000  C
  C365     1.0000 0.49180  0.87400  0.84280  Biso   1.000  C
  C366     1.0000 0.49120  0.82660  0.91580  Biso   1.000  C
  C367     1.0000 0.84280  0.79140  0.49180  Biso   1.000  C
  C368     1.0000 0.91580  0.76640  0.49120  Biso   1.000  C
  C369     1.0000 0.79140  0.84280  0.87400  Biso   1.000  C
  C370     1.0000 0.76640  0.91580  0.82660  Biso   1.000  C
  C371     1.0000 0.87400  0.49180  0.79140  Biso   1.000  C
  C372     1.0000 0.82660  0.49120  0.76640  Biso   1.000  C
  C373     1.0000 0.52355  0.04561  0.42423  Biso   1.000  C
  C374     1.0000 0.49583  0.98435  0.44919  Biso   1.000  C
  C375     1.0000 0.04561  0.52355  0.00661  Biso   1.000  C
  C376     1.0000 0.98435  0.49583  0.07063  Biso   1.000  C
  C377     1.0000 0.42423  0.00661  0.52355  Biso   1.000  C
  C378     1.0000 0.44919  0.07063  0.49583  Biso   1.000  C
  C379     1.0000 0.00661  0.42423  0.04561  Biso   1.000  C
  C380     1.0000 0.07063  0.44919  0.98435  Biso   1.000  C
  C381     1.0000 0.52355  0.42423  0.00661  Biso   1.000  C
  C382     1.0000 0.49583  0.44919  0.07063  Biso   1.000  C
  C383     1.0000 0.04561  0.00661  0.42423  Biso   1.000  C
  C384     1.0000 0.98435  0.07063  0.44919  Biso   1.000  C
  C385     1.0000 0.42423  0.52355  0.04561  Biso   1.000  C
  C386     1.0000 0.44919  0.49583  0.98435  Biso   1.000  C
  C387     1.0000 0.00661  0.04561  0.52355  Biso   1.000  C
  C388     1.0000 0.07063  0.98435  0.49583  Biso   1.000  C
  C389     1.0000 0.52355  0.00661  0.04561  Biso   1.000  C
  C390     1.0000 0.49583  0.07063  0.98435  Biso   1.000  C
  C391     1.0000 0.04561  0.42423  0.52355  Biso   1.000  C
  C392     1.0000 0.98435  0.44919  0.49583  Biso   1.000  C
  C393     1.0000 0.42423  0.04561  0.00661  Biso   1.000  C
  C394     1.0000 0.44919  0.98435  0.07063  Biso   1.000  C
  C395     1.0000 0.00661  0.52355  0.42423  Biso   1.000  C
  C396     1.0000 0.07063  0.49583  0.44919  Biso   1.000  C
  C397     1.0000 0.47645  0.95439  0.57577  Biso   1.000  C
  C398     1.0000 0.50417  0.01565  0.55081  Biso   1.000  C
  C399     1.0000 0.95439  0.47645  0.99339  Biso   1.000  C
  C400     1.0000 0.01565  0.50417  0.92937  Biso   1.000  C
  C401     1.0000 0.57577  0.99339  0.47645  Biso   1.000  C
  C402     1.0000 0.55081  0.92937  0.50417  Biso   1.000  C
  C403     1.0000 0.99339  0.57577  0.95439  Biso   1.000  C
  C404     1.0000 0.92937  0.55081  0.01565  Biso   1.000  C
  C405     1.0000 0.47645  0.57577  0.99339  Biso   1.000  C
  C406     1.0000 0.50417  0.55081  0.92937  Biso   1.000  C
  C407     1.0000 0.95439  0.99339  0.57577  Biso   1.000  C
  C408     1.0000 0.01565  0.92937  0.55081  Biso   1.000  C
  C409     1.0000 0.57577  0.47645  0.95439  Biso   1.000  C
  C410     1.0000 0.55081  0.50417  0.01565  Biso   1.000  C
  C411     1.0000 0.99339  0.95439  0.47645  Biso   1.000  C
  C412     1.0000 0.92937  0.01565  0.50417  Biso   1.000  C
  C413     1.0000 0.47645  0.99339  0.95439  Biso   1.000  C
  C414     1.0000 0.50417  0.92937  0.01565  Biso   1.000  C
  C415     1.0000 0.95439  0.57577  0.47645  Biso   1.000  C
  C416     1.0000 0.01565  0.55081  0.50417  Biso   1.000  C
  C417     1.0000 0.57577  0.95439  0.99339  Biso   1.000  C
  C418     1.0000 0.55081  0.01565  0.92937  Biso   1.000  C
  C419     1.0000 0.99339  0.47645  0.57577  Biso   1.000  C
  C420     1.0000 0.92937  0.50417  0.55081  Biso   1.000  C
  O1       1.0000 0.21172  0.33840  0.66324  Biso   1.000  O
  O2       1.0000 0.68528  0.86484  0.18968  Biso   1.000  O
  O3       1.0000 0.13898  0.41114  0.64338  Biso   1.000  O
  O4       1.0000 0.66542  0.88470  0.11694  Biso   1.000  O
  O5       1.0000 0.13898  0.88470  0.18968  Biso   1.000  O
  O6       1.0000 0.66542  0.41114  0.66324  Biso   1.000  O
  O7       1.0000 0.21172  0.86484  0.11694  Biso   1.000  O
  O8       1.0000 0.68528  0.33840  0.64338  Biso   1.000  O
  O9       1.0000 0.68528  0.41114  0.11694  Biso   1.000  O
  O10      1.0000 0.21172  0.88470  0.64338  Biso   1.000  O
  O11      1.0000 0.66542  0.33840  0.18968  Biso   1.000  O
  O12      1.0000 0.13898  0.86484  0.66324  Biso   1.000  O
  O13      1.0000 0.97525  0.31247  0.92601  Biso   1.000  O
  O14      1.0000 0.09005  0.25747  0.88261  Biso   1.000  O
  O15      1.0000 0.13965  0.28387  0.81141  Biso   1.000  O
  O16      1.0000 0.03535  0.38877  0.77491  Biso   1.000  O
  O17      1.0000 0.98315  0.36517  0.84691  Biso   1.000  O
  O18      1.0000 0.94805  0.86447  0.95321  Biso   1.000  O
  O19      1.0000 0.90465  0.84807  0.06801  Biso   1.000  O
  O20      1.0000 0.83345  0.84327  0.11761  Biso   1.000  O
  O21      1.0000 0.79695  0.87917  0.01331  Biso   1.000  O
  O22      1.0000 0.86895  0.88297  0.96111  Biso   1.000  O
  O23      1.0000 0.11305  0.17467  0.64301  Biso   1.000  O
  O24      1.0000 0.05805  0.28947  0.62661  Biso   1.000  O
  O25      1.0000 0.08445  0.33907  0.62181  Biso   1.000  O
  O26      1.0000 0.18935  0.23477  0.65771  Biso   1.000  O
  O27      1.0000 0.16575  0.18257  0.66151  Biso   1.000  O
  O28      1.0000 0.66505  0.14747  0.09101  Biso   1.000  O
  O29      1.0000 0.64865  0.10407  0.03601  Biso   1.000  O
  O30      1.0000 0.64385  0.03287  0.06241  Biso   1.000  O
  O31      1.0000 0.67975  0.99637  0.16731  Biso   1.000  O
  O32      1.0000 0.68355  0.06837  0.14371  Biso   1.000  O
  O33      1.0000 0.11305  0.14747  0.95321  Biso   1.000  O
  O34      1.0000 0.05805  0.10407  0.06801  Biso   1.000  O
  O35      1.0000 0.08445  0.03287  0.11761  Biso   1.000  O
  O36      1.0000 0.18935  0.99637  0.01331  Biso   1.000  O
  O37      1.0000 0.16575  0.06837  0.96111  Biso   1.000  O
  O38      1.0000 0.66505  0.17467  0.92601  Biso   1.000  O
  O39      1.0000 0.64865  0.28947  0.88261  Biso   1.000  O
  O40      1.0000 0.64385  0.33907  0.81141  Biso   1.000  O
  O41      1.0000 0.67975  0.23477  0.77491  Biso   1.000  O
  O42      1.0000 0.68355  0.18257  0.84691  Biso   1.000  O
  O43      1.0000 0.97525  0.86447  0.09101  Biso   1.000  O
  O44      1.0000 0.09005  0.84807  0.03601  Biso   1.000  O
  O45      1.0000 0.13965  0.84327  0.06241  Biso   1.000  O
  O46      1.0000 0.03535  0.87917  0.16731  Biso   1.000  O
  O47      1.0000 0.98315  0.88297  0.14371  Biso   1.000  O
  O48      1.0000 0.94805  0.31247  0.64301  Biso   1.000  O
  O49      1.0000 0.90465  0.25747  0.62661  Biso   1.000  O
  O50      1.0000 0.83345  0.28387  0.62181  Biso   1.000  O
  O51      1.0000 0.79695  0.38877  0.65771  Biso   1.000  O
  O52      1.0000 0.86895  0.36517  0.66151  Biso   1.000  O
  O53      1.0000 0.94805  0.17467  0.09101  Biso   1.000  O
  O54      1.0000 0.90465  0.28947  0.03601  Biso   1.000  O
  O55      1.0000 0.83345  0.33907  0.06241  Biso   1.000  O
  O56      1.0000 0.79695  0.23477  0.16731  Biso   1.000  O
  O57      1.0000 0.86895  0.18257  0.14371  Biso   1.000  O
  O58      1.0000 0.97525  0.14747  0.64301  Biso   1.000  O
  O59      1.0000 0.09005  0.10407  0.62661  Biso   1.000  O
  O60      1.0000 0.13965  0.03287  0.62181  Biso   1.000  O
  O61      1.0000 0.03535  0.99637  0.65771  Biso   1.000  O
  O62      1.0000 0.98315  0.06837  0.66151  Biso   1.000  O
  O63      1.0000 0.66505  0.31247  0.95321  Biso   1.000  O
  O64      1.0000 0.64865  0.25747  0.06801  Biso   1.000  O
  O65      1.0000 0.64385  0.28387  0.11761  Biso   1.000  O
  O66      1.0000 0.67975  0.38877  0.01331  Biso   1.000  O
  O67      1.0000 0.68355  0.36517  0.96111  Biso   1.000  O
  O68      1.0000 0.11305  0.86447  0.92601  Biso   1.000  O
  O69      1.0000 0.05805  0.84807  0.88261  Biso   1.000  O
  O70      1.0000 0.08445  0.84327  0.81141  Biso   1.000  O
  O71      1.0000 0.18935  0.87917  0.77491  Biso   1.000  O
  O72      1.0000 0.16575  0.88297  0.84691  Biso   1.000  O
  O73      1.0000 0.37545  0.43707  0.38061  Biso   1.000  O
  O74      1.0000 0.26065  0.49207  0.42401  Biso   1.000  O
  O75      1.0000 0.21105  0.46567  0.49521  Biso   1.000  O
  O76      1.0000 0.31535  0.36077  0.53171  Biso   1.000  O
  O77      1.0000 0.36755  0.38437  0.45971  Biso   1.000  O
  O78      1.0000 0.40265  0.88507  0.35341  Biso   1.000  O
  O79      1.0000 0.44605  0.90147  0.23861  Biso   1.000  O
  O80      1.0000 0.51725  0.90627  0.18901  Biso   1.000  O
  O81      1.0000 0.55375  0.87037  0.29331  Biso   1.000  O
  O82      1.0000 0.48175  0.86657  0.34551  Biso   1.000  O
  O83      1.0000 0.23765  0.57487  0.66361  Biso   1.000  O
  O84      1.0000 0.29265  0.46007  0.68001  Biso   1.000  O
  O85      1.0000 0.26625  0.41047  0.68481  Biso   1.000  O
  O86      1.0000 0.16135  0.51477  0.64891  Biso   1.000  O
  O87      1.0000 0.18495  0.56697  0.64511  Biso   1.000  O
  O88      1.0000 0.68565  0.60207  0.21561  Biso   1.000  O
  O89      1.0000 0.70205  0.64547  0.27061  Biso   1.000  O
  O90      1.0000 0.70685  0.71667  0.24421  Biso   1.000  O
  O91      1.0000 0.67095  0.75317  0.13931  Biso   1.000  O
  O92      1.0000 0.66715  0.68117  0.16291  Biso   1.000  O
  O93      1.0000 0.23765  0.60207  0.35341  Biso   1.000  O
  O94      1.0000 0.29265  0.64547  0.23861  Biso   1.000  O
  O95      1.0000 0.26625  0.71667  0.18901  Biso   1.000  O
  O96      1.0000 0.16135  0.75317  0.29331  Biso   1.000  O
  O97      1.0000 0.18495  0.68117  0.34551  Biso   1.000  O
  O98      1.0000 0.68565  0.57487  0.38061  Biso   1.000  O
  O99      1.0000 0.70205  0.46007  0.42401  Biso   1.000  O
  O100     1.0000 0.70685  0.41047  0.49521  Biso   1.000  O
  O101     1.0000 0.67095  0.51477  0.53171  Biso   1.000  O
  O102     1.0000 0.66715  0.56697  0.45971  Biso   1.000  O
  O103     1.0000 0.37545  0.88507  0.21561  Biso   1.000  O
  O104     1.0000 0.26065  0.90147  0.27061  Biso   1.000  O
  O105     1.0000 0.21105  0.90627  0.24421  Biso   1.000  O
  O106     1.0000 0.31535  0.87037  0.13931  Biso   1.000  O
  O107     1.0000 0.36755  0.86657  0.16291  Biso   1.000  O
  O108     1.0000 0.40265  0.43707  0.66361  Biso   1.000  O
  O109     1.0000 0.44605  0.49207  0.68001  Biso   1.000  O
  O110     1.0000 0.51725  0.46567  0.68481  Biso   1.000  O
  O111     1.0000 0.55375  0.36077  0.64891  Biso   1.000  O
  O112     1.0000 0.48175  0.38437  0.64511  Biso   1.000  O
  O113     1.0000 0.40265  0.57487  0.21561  Biso   1.000  O
  O114     1.0000 0.44605  0.46007  0.27061  Biso   1.000  O
  O115     1.0000 0.51725  0.41047  0.24421  Biso   1.000  O
  O116     1.0000 0.55375  0.51477  0.13931  Biso   1.000  O
  O117     1.0000 0.48175  0.56697  0.16291  Biso   1.000  O
  O118     1.0000 0.37545  0.60207  0.66361  Biso   1.000  O
  O119     1.0000 0.26065  0.64547  0.68001  Biso   1.000  O
  O120     1.0000 0.21105  0.71667  0.68481  Biso   1.000  O
  O121     1.0000 0.31535  0.75317  0.64891  Biso   1.000  O
  O122     1.0000 0.36755  0.68117  0.64511  Biso   1.000  O
  O123     1.0000 0.68565  0.43707  0.35341  Biso   1.000  O
  O124     1.0000 0.70205  0.49207  0.23861  Biso   1.000  O
  O125     1.0000 0.70685  0.46567  0.18901  Biso   1.000  O
  O126     1.0000 0.67095  0.36077  0.29331  Biso   1.000  O
  O127     1.0000 0.66715  0.38437  0.34551  Biso   1.000  O
  O128     1.0000 0.23765  0.88507  0.38061  Biso   1.000  O
  O129     1.0000 0.29265  0.90147  0.42401  Biso   1.000  O
  O130     1.0000 0.26625  0.90627  0.49521  Biso   1.000  O
  O131     1.0000 0.16135  0.87037  0.53171  Biso   1.000  O
  O132     1.0000 0.18495  0.86657  0.45971  Biso   1.000  O
  O133     1.0000 0.00315  0.25017  0.95691  Biso   1.000  O
  O134     1.0000 0.03115  0.30757  0.87351  Biso   1.000  O
  O135     1.0000 0.07775  0.28497  0.86071  Biso   1.000  O
  O136     1.0000 0.10745  0.30027  0.81781  Biso   1.000  O
  O137     1.0000 0.09225  0.33967  0.78221  Biso   1.000  O
  O138     1.0000 0.04725  0.36087  0.79681  Biso   1.000  O
  O139     1.0000 0.01515  0.34737  0.84031  Biso   1.000  O
  O140     1.0000 0.12825  0.35047  0.73661  Biso   1.000  O
  O141     1.0000 0.97895  0.86797  0.98111  Biso   1.000  O
  O142     1.0000 0.89555  0.86597  0.00911  Biso   1.000  O
  O143     1.0000 0.88275  0.85477  0.05571  Biso   1.000  O
  O144     1.0000 0.83985  0.85267  0.08541  Biso   1.000  O
  O145     1.0000 0.80425  0.86407  0.07021  Biso   1.000  O
  O146     1.0000 0.81885  0.87327  0.02521  Biso   1.000  O
  O147     1.0000 0.86235  0.87537  0.99311  Biso   1.000  O
  O148     1.0000 0.75865  0.86287  0.10621  Biso   1.000  O
  O149     1.0000 0.05075  0.20257  0.64651  Biso   1.000  O
  O150     1.0000 0.10815  0.23057  0.64451  Biso   1.000  O
  O151     1.0000 0.08555  0.27717  0.63331  Biso   1.000  O
  O152     1.0000 0.10085  0.30687  0.63121  Biso   1.000  O
  O153     1.0000 0.14025  0.29167  0.64261  Biso   1.000  O
  O154     1.0000 0.16145  0.24667  0.65181  Biso   1.000  O
  O155     1.0000 0.14795  0.21457  0.65391  Biso   1.000  O
  O156     1.0000 0.15105  0.32767  0.64141  Biso   1.000  O
  O157     1.0000 0.66855  0.17837  0.02871  Biso   1.000  O
  O158     1.0000 0.66655  0.09497  0.08611  Biso   1.000  O
  O159     1.0000 0.65535  0.08217  0.06351  Biso   1.000  O
  O160     1.0000 0.65325  0.03927  0.07881  Biso   1.000  O
  O161     1.0000 0.66465  0.00367  0.11821  Biso   1.000  O
  O162     1.0000 0.67385  0.01827  0.13941  Biso   1.000  O
  O163     1.0000 0.67595  0.06177  0.12591  Biso   1.000  O
  O164     1.0000 0.66345  0.95807  0.12901  Biso   1.000  O
  O165     1.0000 0.05075  0.17837  0.98111  Biso   1.000  O
  O166     1.0000 0.10815  0.09497  0.00911  Biso   1.000  O
  O167     1.0000 0.08555  0.08217  0.05571  Biso   1.000  O
  O168     1.0000 0.10085  0.03927  0.08541  Biso   1.000  O
  O169     1.0000 0.14025  0.00367  0.07021  Biso   1.000  O
  O170     1.0000 0.16145  0.01827  0.02521  Biso   1.000  O
  O171     1.0000 0.14795  0.06177  0.99311  Biso   1.000  O
  O172     1.0000 0.15105  0.95807  0.10621  Biso   1.000  O
  O173     1.0000 0.66855  0.20257  0.95691  Biso   1.000  O
  O174     1.0000 0.66655  0.23057  0.87351  Biso   1.000  O
  O175     1.0000 0.65535  0.27717  0.86071  Biso   1.000  O
  O176     1.0000 0.65325  0.30687  0.81781  Biso   1.000  O
  O177     1.0000 0.66465  0.29167  0.78221  Biso   1.000  O
  O178     1.0000 0.67385  0.24667  0.79681  Biso   1.000  O
  O179     1.0000 0.67595  0.21457  0.84031  Biso   1.000  O
  O180     1.0000 0.66345  0.32767  0.73661  Biso   1.000  O
  O181     1.0000 0.00315  0.86797  0.02871  Biso   1.000  O
  O182     1.0000 0.03115  0.86597  0.08611  Biso   1.000  O
  O183     1.0000 0.07775  0.85477  0.06351  Biso   1.000  O
  O184     1.0000 0.10745  0.85267  0.07881  Biso   1.000  O
  O185     1.0000 0.09225  0.86407  0.11821  Biso   1.000  O
  O186     1.0000 0.04725  0.87327  0.13941  Biso   1.000  O
  O187     1.0000 0.01515  0.87537  0.12591  Biso   1.000  O
  O188     1.0000 0.12825  0.86287  0.12901  Biso   1.000  O
  O189     1.0000 0.97895  0.25017  0.64651  Biso   1.000  O
  O190     1.0000 0.89555  0.30757  0.64451  Biso   1.000  O
  O191     1.0000 0.88275  0.28497  0.63331  Biso   1.000  O
  O192     1.0000 0.83985  0.30027  0.63121  Biso   1.000  O
  O193     1.0000 0.80425  0.33967  0.64261  Biso   1.000  O
  O194     1.0000 0.81885  0.36087  0.65181  Biso   1.000  O
  O195     1.0000 0.86235  0.34737  0.65391  Biso   1.000  O
  O196     1.0000 0.75865  0.35047  0.64141  Biso   1.000  O
  O197     1.0000 0.97895  0.20257  0.02871  Biso   1.000  O
  O198     1.0000 0.89555  0.23057  0.08611  Biso   1.000  O
  O199     1.0000 0.88275  0.27717  0.06351  Biso   1.000  O
  O200     1.0000 0.83985  0.30687  0.07881  Biso   1.000  O
  O201     1.0000 0.80425  0.29167  0.11821  Biso   1.000  O
  O202     1.0000 0.81885  0.24667  0.13941  Biso   1.000  O
  O203     1.0000 0.86235  0.21457  0.12591  Biso   1.000  O
  O204     1.0000 0.75865  0.32767  0.12901  Biso   1.000  O
  O205     1.0000 0.00315  0.17837  0.64651  Biso   1.000  O
  O206     1.0000 0.03115  0.09497  0.64451  Biso   1.000  O
  O207     1.0000 0.07775  0.08217  0.63331  Biso   1.000  O
  O208     1.0000 0.10745  0.03927  0.63121  Biso   1.000  O
  O209     1.0000 0.09225  0.00367  0.64261  Biso   1.000  O
  O210     1.0000 0.04725  0.01827  0.65181  Biso   1.000  O
  O211     1.0000 0.01515  0.06177  0.65391  Biso   1.000  O
  O212     1.0000 0.12825  0.95807  0.64141  Biso   1.000  O
  O213     1.0000 0.66855  0.25017  0.98111  Biso   1.000  O
  O214     1.0000 0.66655  0.30757  0.00911  Biso   1.000  O
  O215     1.0000 0.65535  0.28497  0.05571  Biso   1.000  O
  O216     1.0000 0.65325  0.30027  0.08541  Biso   1.000  O
  O217     1.0000 0.66465  0.33967  0.07021  Biso   1.000  O
  O218     1.0000 0.67385  0.36087  0.02521  Biso   1.000  O
  O219     1.0000 0.67595  0.34737  0.99311  Biso   1.000  O
  O220     1.0000 0.66345  0.35047  0.10621  Biso   1.000  O
  O221     1.0000 0.05075  0.86797  0.95691  Biso   1.000  O
  O222     1.0000 0.10815  0.86597  0.87351  Biso   1.000  O
  O223     1.0000 0.08555  0.85477  0.86071  Biso   1.000  O
  O224     1.0000 0.10085  0.85267  0.81781  Biso   1.000  O
  O225     1.0000 0.14025  0.86407  0.78221  Biso   1.000  O
  O226     1.0000 0.16145  0.87327  0.79681  Biso   1.000  O
  O227     1.0000 0.14795  0.87537  0.84031  Biso   1.000  O
  O228     1.0000 0.15105  0.86287  0.73661  Biso   1.000  O
  O229     1.0000 0.34755  0.49937  0.34971  Biso   1.000  O
  O230     1.0000 0.31955  0.44197  0.43311  Biso   1.000  O
  O231     1.0000 0.27295  0.46457  0.44591  Biso   1.000  O
  O232     1.0000 0.24325  0.44927  0.48881  Biso   1.000  O
  O233     1.0000 0.25845  0.40987  0.52441  Biso   1.000  O
  O234     1.0000 0.30345  0.38867  0.50981  Biso   1.000  O
  O235     1.0000 0.33555  0.40217  0.46631  Biso   1.000  O
  O236     1.0000 0.22245  0.39907  0.57001  Biso   1.000  O
  O237     1.0000 0.37175  0.88157  0.32551  Biso   1.000  O
  O238     1.0000 0.45515  0.88357  0.29751  Biso   1.000  O
  O239     1.0000 0.46795  0.89477  0.25091  Biso   1.000  O
  O240     1.0000 0.51085  0.89687  0.22121  Biso   1.000  O
  O241     1.0000 0.54645  0.88547  0.23641  Biso   1.000  O
  O242     1.0000 0.53185  0.87627  0.28141  Biso   1.000  O
  O243     1.0000 0.48835  0.87417  0.31351  Biso   1.000  O
  O244     1.0000 0.59205  0.88667  0.20041  Biso   1.000  O
  O245     1.0000 0.29995  0.54697  0.66011  Biso   1.000  O
  O246     1.0000 0.24255  0.51897  0.66211  Biso   1.000  O
  O247     1.0000 0.26515  0.47237  0.67331  Biso   1.000  O
  O248     1.0000 0.24985  0.44267  0.67541  Biso   1.000  O
  O249     1.0000 0.21045  0.45787  0.66401  Biso   1.000  O
  O250     1.0000 0.18925  0.50287  0.65481  Biso   1.000  O
  O251     1.0000 0.20275  0.53497  0.65271  Biso   1.000  O
  O252     1.0000 0.19965  0.42187  0.66521  Biso   1.000  O
  O253     1.0000 0.68215  0.57117  0.27791  Biso   1.000  O
  O254     1.0000 0.68415  0.65457  0.22051  Biso   1.000  O
  O255     1.0000 0.69535  0.66737  0.24311  Biso   1.000  O
  O256     1.0000 0.69745  0.71027  0.22781  Biso   1.000  O
  O257     1.0000 0.68605  0.74587  0.18841  Biso   1.000  O
  O258     1.0000 0.67685  0.73127  0.16721  Biso   1.000  O
  O259     1.0000 0.67475  0.68777  0.18071  Biso   1.000  O
  O260     1.0000 0.68725  0.79147  0.17761  Biso   1.000  O
  O261     1.0000 0.29995  0.57117  0.32551  Biso   1.000  O
  O262     1.0000 0.24255  0.65457  0.29751  Biso   1.000  O
  O263     1.0000 0.26515  0.66737  0.25091  Biso   1.000  O
  O264     1.0000 0.24985  0.71027  0.22121  Biso   1.000  O
  O265     1.0000 0.21045  0.74587  0.23641  Biso   1.000  O
  O266     1.0000 0.18925  0.73127  0.28141  Biso   1.000  O
  O267     1.0000 0.20275  0.68777  0.31351  Biso   1.000  O
  O268     1.0000 0.19965  0.79147  0.20041  Biso   1.000  O
  O269     1.0000 0.68215  0.54697  0.34971  Biso   1.000  O
  O270     1.0000 0.68415  0.51897  0.43311  Biso   1.000  O
  O271     1.0000 0.69535  0.47237  0.44591  Biso   1.000  O
  O272     1.0000 0.69745  0.44267  0.48881  Biso   1.000  O
  O273     1.0000 0.68605  0.45787  0.52441  Biso   1.000  O
  O274     1.0000 0.67685  0.50287  0.50981  Biso   1.000  O
  O275     1.0000 0.67475  0.53497  0.46631  Biso   1.000  O
  O276     1.0000 0.68725  0.42187  0.57001  Biso   1.000  O
  O277     1.0000 0.34755  0.88157  0.27791  Biso   1.000  O
  O278     1.0000 0.31955  0.88357  0.22051  Biso   1.000  O
  O279     1.0000 0.27295  0.89477  0.24311  Biso   1.000  O
  O280     1.0000 0.24325  0.89687  0.22781  Biso   1.000  O
  O281     1.0000 0.25845  0.88547  0.18841  Biso   1.000  O
  O282     1.0000 0.30345  0.87627  0.16721  Biso   1.000  O
  O283     1.0000 0.33555  0.87417  0.18071  Biso   1.000  O
  O284     1.0000 0.22245  0.88667  0.17761  Biso   1.000  O
  O285     1.0000 0.37175  0.49937  0.66011  Biso   1.000  O
  O286     1.0000 0.45515  0.44197  0.66211  Biso   1.000  O
  O287     1.0000 0.46795  0.46457  0.67331  Biso   1.000  O
  O288     1.0000 0.51085  0.44927  0.67541  Biso   1.000  O
  O289     1.0000 0.54645  0.40987  0.66401  Biso   1.000  O
  O290     1.0000 0.53185  0.38867  0.65481  Biso   1.000  O
  O291     1.0000 0.48835  0.40217  0.65271  Biso   1.000  O
  O292     1.0000 0.59205  0.39907  0.66521  Biso   1.000  O
  O293     1.0000 0.37175  0.54697  0.27791  Biso   1.000  O
  O294     1.0000 0.45515  0.51897  0.22051  Biso   1.000  O
  O295     1.0000 0.46795  0.47237  0.24311  Biso   1.000  O
  O296     1.0000 0.51085  0.44267  0.22781  Biso   1.000  O
  O297     1.0000 0.54645  0.45787  0.18841  Biso   1.000  O
  O298     1.0000 0.53185  0.50287  0.16721  Biso   1.000  O
  O299     1.0000 0.48835  0.53497  0.18071  Biso   1.000  O
  O300     1.0000 0.59205  0.42187  0.17761  Biso   1.000  O
  O301     1.0000 0.34755  0.57117  0.66011  Biso   1.000  O
  O302     1.0000 0.31955  0.65457  0.66211  Biso   1.000  O
  O303     1.0000 0.27295  0.66737  0.67331  Biso   1.000  O
  O304     1.0000 0.24325  0.71027  0.67541  Biso   1.000  O
  O305     1.0000 0.25845  0.74587  0.66401  Biso   1.000  O
  O306     1.0000 0.30345  0.73127  0.65481  Biso   1.000  O
  O307     1.0000 0.33555  0.68777  0.65271  Biso   1.000  O
  O308     1.0000 0.22245  0.79147  0.66521  Biso   1.000  O
  O309     1.0000 0.68215  0.49937  0.32551  Biso   1.000  O
  O310     1.0000 0.68415  0.44197  0.29751  Biso   1.000  O
  O311     1.0000 0.69535  0.46457  0.25091  Biso   1.000  O
  O312     1.0000 0.69745  0.44927  0.22121  Biso   1.000  O
  O313     1.0000 0.68605  0.40987  0.23641  Biso   1.000  O
  O314     1.0000 0.67685  0.38867  0.28141  Biso   1.000  O
  O315     1.0000 0.67475  0.40217  0.31351  Biso   1.000  O
  O316     1.0000 0.68725  0.39907  0.20041  Biso   1.000  O
  O317     1.0000 0.29995  0.88157  0.34971  Biso   1.000  O
  O318     1.0000 0.24255  0.88357  0.43311  Biso   1.000  O
  O319     1.0000 0.26515  0.89477  0.44591  Biso   1.000  O
  O320     1.0000 0.24985  0.89687  0.48881  Biso   1.000  O
  O321     1.0000 0.21045  0.88547  0.52441  Biso   1.000  O
  O322     1.0000 0.18925  0.87627  0.50981  Biso   1.000  O
  O323     1.0000 0.20275  0.87417  0.46631  Biso   1.000  O
  O324     1.0000 0.19965  0.88667  0.57001  Biso   1.000  O
  O325     1.0000 0.04935  0.21757  0.94471  Biso   1.000  O
  O326     1.0000 0.00195  0.29057  0.91971  Biso   1.000  O
  O327     1.0000 0.96675  0.86657  0.02731  Biso   1.000  O
  O328     1.0000 0.94175  0.86597  0.97991  Biso   1.000  O
  O329     1.0000 0.01815  0.24877  0.64511  Biso   1.000  O
  O330     1.0000 0.09115  0.20137  0.64451  Biso   1.000  O
  O331     1.0000 0.66715  0.16617  0.99611  Biso   1.000  O
  O332     1.0000 0.66655  0.14117  0.06911  Biso   1.000  O
  O333     1.0000 0.01815  0.16617  0.02731  Biso   1.000  O
  O334     1.0000 0.09115  0.14117  0.97991  Biso   1.000  O
  O335     1.0000 0.66715  0.24877  0.94471  Biso   1.000  O
  O336     1.0000 0.66655  0.20137  0.91971  Biso   1.000  O
  O337     1.0000 0.04935  0.86657  0.99611  Biso   1.000  O
  O338     1.0000 0.00195  0.86597  0.06911  Biso   1.000  O
  O339     1.0000 0.96675  0.21757  0.64511  Biso   1.000  O
  O340     1.0000 0.94175  0.29057  0.64451  Biso   1.000  O
  O341     1.0000 0.96675  0.24877  0.99611  Biso   1.000  O
  O342     1.0000 0.94175  0.20137  0.06911  Biso   1.000  O
  O343     1.0000 0.04935  0.16617  0.64511  Biso   1.000  O
  O344     1.0000 0.00195  0.14117  0.64451  Biso   1.000  O
  O345     1.0000 0.66715  0.21757  0.02731  Biso   1.000  O
  O346     1.0000 0.66655  0.29057  0.97991  Biso   1.000  O
  O347     1.0000 0.01815  0.86657  0.94471  Biso   1.000  O
  O348     1.0000 0.09115  0.86597  0.91971  Biso   1.000  O
  O349     1.0000 0.30135  0.53197  0.36191  Biso   1.000  O
  O350     1.0000 0.34875  0.45897  0.38691  Biso   1.000  O
  O351     1.0000 0.38395  0.88297  0.27931  Biso   1.000  O
  O352     1.0000 0.40895  0.88357  0.32671  Biso   1.000  O
  O353     1.0000 0.33255  0.50077  0.66151  Biso   1.000  O
  O354     1.0000 0.25955  0.54817  0.66211  Biso   1.000  O
  O355     1.0000 0.68355  0.58337  0.31051  Biso   1.000  O
  O356     1.0000 0.68415  0.60837  0.23751  Biso   1.000  O
  O357     1.0000 0.33255  0.58337  0.27931  Biso   1.000  O
  O358     1.0000 0.25955  0.60837  0.32671  Biso   1.000  O
  O359     1.0000 0.68355  0.50077  0.36191  Biso   1.000  O
  O360     1.0000 0.68415  0.54817  0.38691  Biso   1.000  O
  O361     1.0000 0.30135  0.88297  0.31051  Biso   1.000  O
  O362     1.0000 0.34875  0.88357  0.23751  Biso   1.000  O
  O363     1.0000 0.38395  0.53197  0.66151  Biso   1.000  O
  O364     1.0000 0.40895  0.45897  0.66211  Biso   1.000  O
  O365     1.0000 0.38395  0.50077  0.31051  Biso   1.000  O
  O366     1.0000 0.40895  0.54817  0.23751  Biso   1.000  O
  O367     1.0000 0.30135  0.58337  0.66151  Biso   1.000  O
  O368     1.0000 0.34875  0.60837  0.66211  Biso   1.000  O
  O369     1.0000 0.68355  0.53197  0.27931  Biso   1.000  O
  O370     1.0000 0.68415  0.45897  0.32671  Biso   1.000  O
  O371     1.0000 0.33255  0.88297  0.36191  Biso   1.000  O
  O372     1.0000 0.25955  0.88357  0.38691  Biso   1.000  O
  O373     1.0000 0.16874  0.32916  0.72908  Biso   1.000  O
  O374     1.0000 0.10472  0.39042  0.70412  Biso   1.000  O
  O375     1.0000 0.75112  0.85122  0.14670  Biso   1.000  O
  O376     1.0000 0.72616  0.87894  0.08268  Biso   1.000  O
  O377     1.0000 0.12974  0.36816  0.62976  Biso   1.000  O
  O378     1.0000 0.19100  0.30414  0.65748  Biso   1.000  O
  O379     1.0000 0.65180  0.95054  0.10770  Biso   1.000  O
  O380     1.0000 0.67952  0.92558  0.16896  Biso   1.000  O
  O381     1.0000 0.12974  0.95054  0.14670  Biso   1.000  O
  O382     1.0000 0.19100  0.92558  0.08268  Biso   1.000  O
  O383     1.0000 0.65180  0.36816  0.72908  Biso   1.000  O
  O384     1.0000 0.67952  0.30414  0.70412  Biso   1.000  O
  O385     1.0000 0.16874  0.85122  0.10770  Biso   1.000  O
  O386     1.0000 0.10472  0.87894  0.16896  Biso   1.000  O
  O387     1.0000 0.75112  0.32916  0.62976  Biso   1.000  O
  O388     1.0000 0.72616  0.39042  0.65748  Biso   1.000  O
  O389     1.0000 0.75112  0.36816  0.10770  Biso   1.000  O
  O390     1.0000 0.72616  0.30414  0.16896  Biso   1.000  O
  O391     1.0000 0.16874  0.95054  0.62976  Biso   1.000  O
  O392     1.0000 0.10472  0.92558  0.65748  Biso   1.000  O
  O393     1.0000 0.65180  0.32916  0.14670  Biso   1.000  O
  O394     1.0000 0.67952  0.39042  0.08268  Biso   1.000  O
  O395     1.0000 0.12974  0.85122  0.72908  Biso   1.000  O
  O396     1.0000 0.19100  0.87894  0.70412  Biso   1.000  O
  O397     1.0000 0.18196  0.42038  0.57754  Biso   1.000  O
  O398     1.0000 0.24598  0.35912  0.60250  Biso   1.000  O
  O399     1.0000 0.59958  0.89832  0.15992  Biso   1.000  O
  O400     1.0000 0.62454  0.87060  0.22394  Biso   1.000  O
  O401     1.0000 0.22096  0.38138  0.67686  Biso   1.000  O
  O402     1.0000 0.15970  0.44540  0.64914  Biso   1.000  O
  O403     1.0000 0.69890  0.79900  0.19892  Biso   1.000  O
  O404     1.0000 0.67118  0.82396  0.13766  Biso   1.000  O
  O405     1.0000 0.22096  0.79900  0.15992  Biso   1.000  O
  O406     1.0000 0.15970  0.82396  0.22394  Biso   1.000  O
  O407     1.0000 0.69890  0.38138  0.57754  Biso   1.000  O
  O408     1.0000 0.67118  0.44540  0.60250  Biso   1.000  O
  O409     1.0000 0.18196  0.89832  0.19892  Biso   1.000  O
  O410     1.0000 0.24598  0.87060  0.13766  Biso   1.000  O
  O411     1.0000 0.59958  0.42038  0.67686  Biso   1.000  O
  O412     1.0000 0.62454  0.35912  0.64914  Biso   1.000  O
  O413     1.0000 0.59958  0.38138  0.19892  Biso   1.000  O
  O414     1.0000 0.62454  0.44540  0.13766  Biso   1.000  O
  O415     1.0000 0.18196  0.79900  0.67686  Biso   1.000  O
  O416     1.0000 0.24598  0.82396  0.64914  Biso   1.000  O
  O417     1.0000 0.69890  0.42038  0.15992  Biso   1.000  O
  O418     1.0000 0.67118  0.35912  0.22394  Biso   1.000  O
  O419     1.0000 0.22096  0.89832  0.57754  Biso   1.000  O
