data_image0
_cell_length_a       25.334
_cell_length_b       25.334
_cell_length_c       25.334
_cell_angle_alpha    90
_cell_angle_beta     90
_cell_angle_gamma    90

_symmetry_space_group_name_H-M    "P 1"
_symmetry_int_tables_number       1

loop_
  _symmetry_equiv_pos_as_xyz
  'x, y, z'

loop_
  _atom_site_label
  _atom_site_occupancy
  _atom_site_fract_x
  _atom_site_fract_y
  _atom_site_fract_z
  _atom_site_thermal_displace_type
  _atom_site_B_iso_or_equiv
  _atom_site_type_symbol
  C1       1.0000 0.52621  0.97785  0.33534  Biso   1.000  C
  C2       1.0000 0.47214  0.97755  0.33505  Biso   1.000  C
  C3       1.0000 0.45568  0.98677  0.38658  Biso   1.000  C
  N1       1.0000 0.49860  0.99404  0.41782  Biso   1.000  N
  C4       1.0000 0.54173  0.98832  0.38670  Biso   1.000  C
  C5       1.0000 0.40208  0.99337  0.40285  Biso   1.000  C
  C6       1.0000 0.38743  0.00174  0.45680  Biso   1.000  C
  C7       1.0000 0.33694  0.01461  0.47418  Biso   1.000  C
  C8       1.0000 0.33818  0.01539  0.52833  Biso   1.000  C
  C9       1.0000 0.38893  0.00179  0.54344  Biso   1.000  C
  N2       1.0000 0.41859  0.99331  0.49969  Biso   1.000  N
  C10      1.0000 0.40508  0.99484  0.59677  Biso   1.000  C
  C11      1.0000 0.45837  0.98821  0.61293  Biso   1.000  C
  C12      1.0000 0.47391  0.97774  0.66428  Biso   1.000  C
  C13      1.0000 0.52798  0.97752  0.66457  Biso   1.000  C
  C14      1.0000 0.54442  0.98680  0.61304  Biso   1.000  C
  N3       1.0000 0.50149  0.99402  0.58181  Biso   1.000  N
  C15      1.0000 0.59800  0.99352  0.59678  Biso   1.000  C
  C16      1.0000 0.61264  0.00196  0.54284  Biso   1.000  C
  C17      1.0000 0.66309  0.01495  0.52547  Biso   1.000  C
  C18      1.0000 0.66186  0.01573  0.47132  Biso   1.000  C
  C19      1.0000 0.61114  0.00201  0.45619  Biso   1.000  C
  N4       1.0000 0.58149  0.99345  0.49994  Biso   1.000  N
  C20      1.0000 0.59501  0.99502  0.40286  Biso   1.000  C
  H1       1.0000 0.55115  0.97193  0.30118  Biso   1.000  H
  H2       1.0000 0.44817  0.97249  0.30013  Biso   1.000  H
  H3       1.0000 0.54413  0.97687  0.50015  Biso   1.000  H
  H4       1.0000 0.30186  0.02141  0.45093  Biso   1.000  H
  H5       1.0000 0.30485  0.02390  0.55366  Biso   1.000  H
  H6       1.0000 0.44898  0.97175  0.69844  Biso   1.000  H
  H7       1.0000 0.55197  0.97247  0.69948  Biso   1.000  H
  H8       1.0000 0.69517  0.02433  0.44599  Biso   1.000  H
  H9       1.0000 0.45600  0.97683  0.49948  Biso   1.000  H
  H10      1.0000 0.69814  0.02185  0.54873  Biso   1.000  H
  C21      1.0000 0.47266  0.33038  0.02139  Biso   1.000  C
  C22      1.0000 0.52673  0.33120  0.02232  Biso   1.000  C
  C23      1.0000 0.54193  0.38230  0.01039  Biso   1.000  C
  N5       1.0000 0.49867  0.41284  0.00295  Biso   1.000  N
  C24      1.0000 0.45589  0.38146  0.01028  Biso   1.000  C
  C25      1.0000 0.59490  0.39862  0.00242  Biso   1.000  C
  C26      1.0000 0.60958  0.45178  0.99264  Biso   1.000  C
  C27      1.0000 0.65745  0.46676  0.97085  Biso   1.000  C
  C28      1.0000 0.65778  0.52093  0.96914  Biso   1.000  C
  C29      1.0000 0.61038  0.53809  0.99071  Biso   1.000  C
  N6       1.0000 0.58094  0.49547  0.00459  Biso   1.000  N
  C30      1.0000 0.59613  0.59216  0.99756  Biso   1.000  C
  C31      1.0000 0.54260  0.60789  0.00489  Biso   1.000  C
  C32      1.0000 0.52635  0.65763  0.02115  Biso   1.000  C
  C33      1.0000 0.47230  0.65738  0.02104  Biso   1.000  C
  C34      1.0000 0.45673  0.60708  0.00627  Biso   1.000  C
  N7       1.0000 0.49980  0.57693  0.99611  Biso   1.000  N
  C35      1.0000 0.40341  0.59093  0.00017  Biso   1.000  C
  C36      1.0000 0.38751  0.53759  0.99290  Biso   1.000  C
  C37      1.0000 0.33613  0.52187  0.98279  Biso   1.000  C
  C38      1.0000 0.33565  0.46770  0.98349  Biso   1.000  C
  C39      1.0000 0.38697  0.45090  0.99357  Biso   1.000  C
  N8       1.0000 0.41809  0.49418  0.99981  Biso   1.000  N
  C40      1.0000 0.40228  0.39714  0.00217  Biso   1.000  C
  H11      1.0000 0.44901  0.29533  0.02691  Biso   1.000  H
  H12      1.0000 0.55188  0.29746  0.02959  Biso   1.000  H
  H13      1.0000 0.45650  0.49456  0.01368  Biso   1.000  H
  H14      1.0000 0.68877  0.44125  0.95695  Biso   1.000  H
  H15      1.0000 0.68935  0.54490  0.95323  Biso   1.000  H
  H16      1.0000 0.55074  0.69079  0.03247  Biso   1.000  H
  H17      1.0000 0.44752  0.69061  0.03123  Biso   1.000  H
  H18      1.0000 0.30046  0.44395  0.97938  Biso   1.000  H
  H19      1.0000 0.54583  0.49617  0.02587  Biso   1.000  H
  H20      1.0000 0.30178  0.54667  0.97749  Biso   1.000  H
  C41      1.0000 0.03510  0.52250  0.65701  Biso   1.000  C
  C42      1.0000 0.03624  0.46842  0.65690  Biso   1.000  C
  C43      1.0000 0.01130  0.45214  0.61098  Biso   1.000  C
  N9       1.0000 0.99572  0.49474  0.58249  Biso   1.000  N
  C44      1.0000 0.00961  0.53788  0.61108  Biso   1.000  C
  C45      1.0000 0.00167  0.39871  0.59670  Biso   1.000  C
  C46      1.0000 0.99066  0.38487  0.54336  Biso   1.000  C
  C47      1.0000 0.96427  0.33956  0.52754  Biso   1.000  C
  C48      1.0000 0.96432  0.33929  0.47331  Biso   1.000  C
  C49      1.0000 0.99075  0.38443  0.45704  Biso   1.000  C
  N10      1.0000 0.00582  0.41260  0.50010  Biso   1.000  N
  C50      1.0000 0.00129  0.39796  0.40347  Biso   1.000  C
  C51      1.0000 0.01160  0.45118  0.38887  Biso   1.000  C
  C52      1.0000 0.03405  0.46738  0.34158  Biso   1.000  C
  C53      1.0000 0.03373  0.52154  0.34180  Biso   1.000  C
  C54      1.0000 0.01188  0.53681  0.38949  Biso   1.000  C
  N11      1.0000 0.99863  0.49382  0.41843  Biso   1.000  N
  C55      1.0000 0.00106  0.58957  0.40420  Biso   1.000  C
  C56      1.0000 0.98892  0.60362  0.45689  Biso   1.000  C
  C57      1.0000 0.96463  0.65024  0.47192  Biso   1.000  C
  C58      1.0000 0.96355  0.65058  0.52621  Biso   1.000  C
  C59      1.0000 0.98808  0.60452  0.54308  Biso   1.000  C
  N12      1.0000 0.00263  0.57568  0.50041  Biso   1.000  N
  C60      1.0000 0.99864  0.59103  0.59661  Biso   1.000  C
  H21      1.0000 0.05205  0.54765  0.68709  Biso   1.000  H
  H22      1.0000 0.05417  0.44391  0.68694  Biso   1.000  H
  H23      1.0000 0.02569  0.54162  0.50094  Biso   1.000  H
  H24      1.0000 0.94635  0.30989  0.55251  Biso   1.000  H
  H25      1.0000 0.94632  0.30940  0.44866  Biso   1.000  H
  H26      1.0000 0.04931  0.44282  0.31015  Biso   1.000  H
  H27      1.0000 0.04816  0.54679  0.31051  Biso   1.000  H
  H28      1.0000 0.94670  0.68145  0.55044  Biso   1.000  H
  H29      1.0000 0.02957  0.44621  0.50010  Biso   1.000  H
  H30      1.0000 0.94926  0.68086  0.44639  Biso   1.000  H
  O1       1.0000 0.92893  0.99398  0.86325  Biso   1.000  O
  O2       1.0000 0.92778  0.99604  0.13548  Biso   1.000  O
  O3       1.0000 0.86382  0.92312  0.99742  Biso   1.000  O
  O4       1.0000 0.86406  0.06671  0.00045  Biso   1.000  O
  O5       1.0000 0.92856  0.13095  0.00146  Biso   1.000  O
  O6       1.0000 0.92815  0.85876  0.99744  Biso   1.000  O
  O7       1.0000 0.86365  0.99688  0.07087  Biso   1.000  O
  O8       1.0000 0.86423  0.99273  0.92732  Biso   1.000  O
  Zr1      1.0000 0.90689  0.99486  0.99929  Biso   1.000  Zr
  O9       1.0000 0.95198  0.04271  0.04747  Biso   1.000  O
  O10      1.0000 0.95220  0.94691  0.95150  Biso   1.000  O
  C61      1.0000 0.87989  0.99267  0.87842  Biso   1.000  C
  C62      1.0000 0.87889  0.99718  0.11990  Biso   1.000  C
  C63      1.0000 0.87917  0.87412  0.99652  Biso   1.000  C
  C64      1.0000 0.87954  0.11566  0.00162  Biso   1.000  C
  H31      1.0000 0.92943  0.92456  0.06951  Biso   1.000  H
  O11      1.0000 0.95208  0.94711  0.04713  Biso   1.000  O
  H32      1.0000 0.93028  0.06514  0.92934  Biso   1.000  H
  O12      1.0000 0.95267  0.04256  0.95196  Biso   1.000  O
  O13      1.0000 0.07107  0.99357  0.13640  Biso   1.000  O
  O14      1.0000 0.07233  0.99615  0.86415  Biso   1.000  O
  O15      1.0000 0.00118  0.85859  0.07136  Biso   1.000  O
  O16      1.0000 0.99863  0.13083  0.07165  Biso   1.000  O
  O17      1.0000 0.00233  0.13094  0.92809  Biso   1.000  O
  O18      1.0000 0.99855  0.85876  0.92784  Biso   1.000  O
  O19      1.0000 0.13597  0.92264  0.00269  Biso   1.000  O
  O20      1.0000 0.13642  0.06615  0.99982  Biso   1.000  O
  O21      1.0000 0.07139  0.85841  0.00074  Biso   1.000  O
  O22      1.0000 0.07215  0.13066  0.99801  Biso   1.000  O
  O23      1.0000 0.00122  0.92289  0.13577  Biso   1.000  O
  O24      1.0000 0.99860  0.92318  0.86357  Biso   1.000  O
  O25      1.0000 0.00236  0.06659  0.86373  Biso   1.000  O
  O26      1.0000 0.99759  0.06637  0.13589  Biso   1.000  O
  O27      1.0000 0.13581  0.99219  0.07238  Biso   1.000  O
  O28      1.0000 0.13646  0.99653  0.92879  Biso   1.000  O
  Zr2      1.0000 0.99963  0.99467  0.09286  Biso   1.000  Zr
  Zr3      1.0000 0.00043  0.99487  0.90669  Biso   1.000  Zr
  Zr4      1.0000 0.99987  0.90165  0.99962  Biso   1.000  Zr
  Zr5      1.0000 0.00026  0.08788  0.99983  Biso   1.000  Zr
  Zr6      1.0000 0.09321  0.99453  0.00039  Biso   1.000  Zr
  O29      1.0000 0.04835  0.04259  0.95217  Biso   1.000  O
  O30      1.0000 0.04767  0.94660  0.04796  Biso   1.000  O
  C65      1.0000 0.12012  0.99216  0.12127  Biso   1.000  C
  C66      1.0000 0.12123  0.99705  0.87975  Biso   1.000  C
  C67      1.0000 0.00184  0.87390  0.12038  Biso   1.000  C
  C68      1.0000 0.99737  0.11540  0.12062  Biso   1.000  C
  C69      1.0000 0.00313  0.11558  0.87909  Biso   1.000  C
  C70      1.0000 0.99791  0.87417  0.87887  Biso   1.000  C
  C71      1.0000 0.12034  0.87373  0.00243  Biso   1.000  C
  C72      1.0000 0.12109  0.11513  0.99835  Biso   1.000  C
  H33      1.0000 0.07044  0.92460  0.92986  Biso   1.000  H
  O31      1.0000 0.04785  0.94712  0.95234  Biso   1.000  O
  H34      1.0000 0.07001  0.06476  0.07041  Biso   1.000  H
  O32      1.0000 0.04758  0.04230  0.04773  Biso   1.000  O
  C73      1.0000 0.28239  0.99188  0.28417  Biso   1.000  C
  C74      1.0000 0.29067  0.03694  0.31549  Biso   1.000  C
  C75      1.0000 0.33021  0.03763  0.35422  Biso   1.000  C
  C76      1.0000 0.36189  0.99285  0.36350  Biso   1.000  C
  C77      1.0000 0.35331  0.94769  0.33216  Biso   1.000  C
  C78      1.0000 0.31438  0.94736  0.29280  Biso   1.000  C
  C79      1.0000 0.24068  0.99142  0.24255  Biso   1.000  C
  C80      1.0000 0.25163  0.97233  0.19158  Biso   1.000  C
  C81      1.0000 0.21268  0.97278  0.15222  Biso   1.000  C
  C82      1.0000 0.16148  0.99140  0.16311  Biso   1.000  C
  C83      1.0000 0.15039  0.00986  0.21434  Biso   1.000  C
  C84      1.0000 0.18963  0.01031  0.25339  Biso   1.000  C
  H35      1.0000 0.33652  0.07352  0.37661  Biso   1.000  H
  H36      1.0000 0.37660  0.91237  0.33846  Biso   1.000  H
  H37      1.0000 0.22259  0.95819  0.11328  Biso   1.000  H
  H38      1.0000 0.11150  0.02471  0.22408  Biso   1.000  H
  H39      1.0000 0.30868  0.91191  0.26960  Biso   1.000  H
  H40      1.0000 0.29067  0.95785  0.18192  Biso   1.000  H
  H41      1.0000 0.26715  0.07209  0.30929  Biso   1.000  H
  H42      1.0000 0.17989  0.02493  0.29237  Biso   1.000  H
  C85      1.0000 0.71603  0.99716  0.28213  Biso   1.000  C
  C86      1.0000 0.67734  0.03698  0.28416  Biso   1.000  C
  C87      1.0000 0.63835  0.03647  0.32340  Biso   1.000  C
  C88      1.0000 0.63678  0.99580  0.36107  Biso   1.000  C
  C89      1.0000 0.67520  0.95590  0.35904  Biso   1.000  C
  C90      1.0000 0.71453  0.95669  0.32017  Biso   1.000  C
  C91      1.0000 0.75780  0.99780  0.24059  Biso   1.000  C
  C92      1.0000 0.81052  0.98601  0.25330  Biso   1.000  C
  C93      1.0000 0.84976  0.98633  0.21434  Biso   1.000  C
  C94      1.0000 0.83724  0.99794  0.16145  Biso   1.000  C
  C95      1.0000 0.78445  0.00974  0.14875  Biso   1.000  C
  C96      1.0000 0.74530  0.00994  0.18787  Biso   1.000  C
  H43      1.0000 0.60928  0.06780  0.32444  Biso   1.000  H
  H44      1.0000 0.67465  0.92411  0.38762  Biso   1.000  H
  H45      1.0000 0.88990  0.97697  0.22566  Biso   1.000  H
  H46      1.0000 0.77331  0.01899  0.10853  Biso   1.000  H
  H47      1.0000 0.74338  0.92516  0.31938  Biso   1.000  H
  H48      1.0000 0.82157  0.97705  0.29361  Biso   1.000  H
  H49      1.0000 0.67773  0.06899  0.25584  Biso   1.000  H
  H50      1.0000 0.70500  0.01876  0.17669  Biso   1.000  H
  C97      1.0000 0.71763  0.99227  0.71552  Biso   1.000  C
  C98      1.0000 0.70921  0.03735  0.68426  Biso   1.000  C
  C99      1.0000 0.66970  0.03795  0.64549  Biso   1.000  C
  C100     1.0000 0.63818  0.99308  0.63612  Biso   1.000  C
  C101     1.0000 0.64690  0.94790  0.66741  Biso   1.000  C
  C102     1.0000 0.68581  0.94764  0.70679  Biso   1.000  C
  C103     1.0000 0.75933  0.99189  0.75717  Biso   1.000  C
  C104     1.0000 0.74854  0.97235  0.80801  Biso   1.000  C
  C105     1.0000 0.78749  0.97281  0.84737  Biso   1.000  C
  C106     1.0000 0.83852  0.99195  0.83661  Biso   1.000  C
  C107     1.0000 0.84947  0.01089  0.78553  Biso   1.000  C
  C108     1.0000 0.81023  0.01129  0.74647  Biso   1.000  C
  H51      1.0000 0.66329  0.07385  0.62315  Biso   1.000  H
  H52      1.0000 0.62373  0.91251  0.66104  Biso   1.000  H
  H53      1.0000 0.77774  0.95776  0.88619  Biso   1.000  H
  H54      1.0000 0.88824  0.02612  0.77591  Biso   1.000  H
  H55      1.0000 0.69163  0.91217  0.72992  Biso   1.000  H
  H56      1.0000 0.70962  0.95746  0.81756  Biso   1.000  H
  H57      1.0000 0.73258  0.07259  0.69054  Biso   1.000  H
  H58      1.0000 0.81987  0.02625  0.70761  Biso   1.000  H
  C109     1.0000 0.28409  0.99692  0.71753  Biso   1.000  C
  C110     1.0000 0.28562  0.95642  0.67953  Biso   1.000  C
  C111     1.0000 0.32494  0.95565  0.64065  Biso   1.000  C
  C112     1.0000 0.36333  0.99559  0.63857  Biso   1.000  C
  C113     1.0000 0.36173  0.03627  0.67622  Biso   1.000  C
  C114     1.0000 0.32274  0.03677  0.71547  Biso   1.000  C
  C115     1.0000 0.24233  0.99756  0.75907  Biso   1.000  C
  C116     1.0000 0.25482  0.00974  0.81179  Biso   1.000  C
  C117     1.0000 0.21568  0.00957  0.85091  Biso   1.000  C
  C118     1.0000 0.16288  0.99776  0.83821  Biso   1.000  C
  C119     1.0000 0.15037  0.98610  0.78533  Biso   1.000  C
  C120     1.0000 0.18961  0.98574  0.74637  Biso   1.000  C
  H59      1.0000 0.32552  0.92384  0.61208  Biso   1.000  H
  H60      1.0000 0.39077  0.06764  0.67516  Biso   1.000  H
  H61      1.0000 0.22681  0.01885  0.89112  Biso   1.000  H
  H62      1.0000 0.11023  0.97671  0.77402  Biso   1.000  H
  H63      1.0000 0.32233  0.06880  0.74377  Biso   1.000  H
  H64      1.0000 0.29512  0.01857  0.82296  Biso   1.000  H
  H65      1.0000 0.25680  0.92487  0.68034  Biso   1.000  H
  H66      1.0000 0.17857  0.97675  0.70607  Biso   1.000  H
  C121     1.0000 0.28327  0.27790  0.99995  Biso   1.000  C
  C122     1.0000 0.29219  0.30989  0.95551  Biso   1.000  C
  C123     1.0000 0.33153  0.34879  0.95613  Biso   1.000  C
  C124     1.0000 0.36249  0.35742  0.00155  Biso   1.000  C
  C125     1.0000 0.35304  0.32561  0.04620  Biso   1.000  C
  C126     1.0000 0.31429  0.28611  0.04524  Biso   1.000  C
  C127     1.0000 0.24180  0.23609  0.99908  Biso   1.000  C
  C128     1.0000 0.25263  0.18509  0.01811  Biso   1.000  C
  C129     1.0000 0.21375  0.14571  0.01717  Biso   1.000  C
  C130     1.0000 0.16275  0.15661  0.99803  Biso   1.000  C
  C131     1.0000 0.15186  0.20774  0.97921  Biso   1.000  C
  C132     1.0000 0.19105  0.24684  0.97930  Biso   1.000  C
  H67      1.0000 0.33822  0.37192  0.92078  Biso   1.000  H
  H68      1.0000 0.37544  0.33169  0.08212  Biso   1.000  H
  H69      1.0000 0.22345  0.10687  0.03216  Biso   1.000  H
  H70      1.0000 0.11310  0.21744  0.96402  Biso   1.000  H
  H71      1.0000 0.30792  0.26249  0.08029  Biso   1.000  H
  H72      1.0000 0.29146  0.17550  0.03320  Biso   1.000  H
  H73      1.0000 0.26931  0.30414  0.91986  Biso   1.000  H
  H74      1.0000 0.18144  0.28584  0.96466  Biso   1.000  H
  C133     1.0000 0.28227  0.71133  0.00246  Biso   1.000  C
  C134     1.0000 0.29659  0.68646  0.95495  Biso   1.000  C
  C135     1.0000 0.33622  0.64787  0.95420  Biso   1.000  C
  C136     1.0000 0.36151  0.63253  0.00110  Biso   1.000  C
  C137     1.0000 0.34673  0.65680  0.04873  Biso   1.000  C
  C138     1.0000 0.30795  0.69629  0.04931  Biso   1.000  C
  C139     1.0000 0.24063  0.75278  0.00306  Biso   1.000  C
  C140     1.0000 0.24983  0.80184  0.02730  Biso   1.000  C
  C141     1.0000 0.21098  0.84127  0.02678  Biso   1.000  C
  C142     1.0000 0.16161  0.83204  0.00310  Biso   1.000  C
  C143     1.0000 0.15219  0.78264  0.97956  Biso   1.000  C
  C144     1.0000 0.19146  0.74369  0.97902  Biso   1.000  C
  H75      1.0000 0.34704  0.62966  0.91707  Biso   1.000  H
  H76      1.0000 0.36559  0.64539  0.08536  Biso   1.000  H
  H77      1.0000 0.21937  0.87883  0.04538  Biso   1.000  H
  H78      1.0000 0.11468  0.77441  0.96075  Biso   1.000  H
  H79      1.0000 0.29741  0.71458  0.08649  Biso   1.000  H
  H80      1.0000 0.28747  0.80995  0.04588  Biso   1.000  H
  H81      1.0000 0.27763  0.69751  0.91827  Biso   1.000  H
  H82      1.0000 0.18327  0.70614  0.96028  Biso   1.000  H
  C145     1.0000 0.71672  0.71065  0.99421  Biso   1.000  C
  C146     1.0000 0.66990  0.71689  0.96503  Biso   1.000  C
  C147     1.0000 0.63056  0.67799  0.96578  Biso   1.000  C
  C148     1.0000 0.63658  0.63152  0.99591  Biso   1.000  C
  C149     1.0000 0.68395  0.62512  0.02451  Biso   1.000  C
  C150     1.0000 0.72326  0.66407  0.02376  Biso   1.000  C
  C151     1.0000 0.75838  0.75259  0.99407  Biso   1.000  C
  C152     1.0000 0.81230  0.73922  0.99427  Biso   1.000  C
  C153     1.0000 0.85130  0.77848  0.99479  Biso   1.000  C
  C154     1.0000 0.83757  0.83235  0.99514  Biso   1.000  C
  C155     1.0000 0.78363  0.84573  0.99462  Biso   1.000  C
  C156     1.0000 0.74464  0.80644  0.99409  Biso   1.000  C
  H83      1.0000 0.59568  0.68386  0.94174  Biso   1.000  H
  H84      1.0000 0.68999  0.59053  0.04891  Biso   1.000  H
  H85      1.0000 0.89232  0.76645  0.99495  Biso   1.000  H
  H86      1.0000 0.77136  0.88667  0.99495  Biso   1.000  H
  H87      1.0000 0.75837  0.65814  0.04737  Biso   1.000  H
  H88      1.0000 0.82448  0.69827  0.99346  Biso   1.000  H
  H89      1.0000 0.66391  0.75162  0.94086  Biso   1.000  H
  H90      1.0000 0.70360  0.81833  0.99464  Biso   1.000  H
  C157     1.0000 0.71725  0.27894  0.00158  Biso   1.000  C
  C158     1.0000 0.67640  0.27801  0.96390  Biso   1.000  C
  C159     1.0000 0.63713  0.31699  0.96377  Biso   1.000  C
  C160     1.0000 0.63737  0.35746  0.00170  Biso   1.000  C
  C161     1.0000 0.67833  0.35880  0.03905  Biso   1.000  C
  C162     1.0000 0.71787  0.32007  0.03895  Biso   1.000  C
  C163     1.0000 0.75885  0.23709  0.00199  Biso   1.000  C
  C164     1.0000 0.81213  0.24996  0.01096  Biso   1.000  C
  C165     1.0000 0.85116  0.21071  0.01091  Biso   1.000  C
  C166     1.0000 0.83796  0.15741  0.00228  Biso   1.000  C
  C167     1.0000 0.78456  0.14454  0.99375  Biso   1.000  C
  C168     1.0000 0.74562  0.18385  0.99340  Biso   1.000  C
  H91      1.0000 0.60632  0.31552  0.93417  Biso   1.000  H
  H92      1.0000 0.67939  0.38967  0.06860  Biso   1.000  H
  H93      1.0000 0.89176  0.22224  0.01769  Biso   1.000  H
  H94      1.0000 0.77276  0.10402  0.98697  Biso   1.000  H
  H95      1.0000 0.74844  0.32176  0.06877  Biso   1.000  H
  H96      1.0000 0.82379  0.29059  0.01722  Biso   1.000  H
  H97      1.0000 0.67516  0.24743  0.93407  Biso   1.000  H
  H98      1.0000 0.70493  0.17243  0.98702  Biso   1.000  H
  C169     1.0000 0.99755  0.27784  0.28430  Biso   1.000  C
  C170     1.0000 0.02212  0.26872  0.33329  Biso   1.000  C
  C171     1.0000 0.02308  0.30790  0.37239  Biso   1.000  C
  C172     1.0000 0.99981  0.35779  0.36377  Biso   1.000  C
  C173     1.0000 0.97487  0.36653  0.31470  Biso   1.000  C
  C174     1.0000 0.97375  0.32727  0.27574  Biso   1.000  C
  C175     1.0000 0.99692  0.23616  0.24229  Biso   1.000  C
  C176     1.0000 0.00166  0.24972  0.18859  Biso   1.000  C
  C177     1.0000 0.00140  0.21076  0.14927  Biso   1.000  C
  C178     1.0000 0.99659  0.15699  0.16243  Biso   1.000  C
  C179     1.0000 0.99169  0.14341  0.21611  Biso   1.000  C
  C180     1.0000 0.99178  0.18240  0.25541  Biso   1.000  C
  H99      1.0000 0.04362  0.29961  0.40896  Biso   1.000  H
  H100     1.0000 0.95477  0.40343  0.30682  Biso   1.000  H
  H101     1.0000 0.00552  0.22289  0.10849  Biso   1.000  H
  H102     1.0000 0.98764  0.10253  0.22792  Biso   1.000  H
  H103     1.0000 0.95333  0.33545  0.23911  Biso   1.000  H
  H104     1.0000 0.00652  0.29051  0.17685  Biso   1.000  H
  H105     1.0000 0.04169  0.23157  0.34115  Biso   1.000  H
  H106     1.0000 0.98717  0.17035  0.29615  Biso   1.000  H
  C181     1.0000 0.00327  0.27858  0.71601  Biso   1.000  C
  C182     1.0000 0.02598  0.26959  0.66613  Biso   1.000  C
  C183     1.0000 0.02527  0.30877  0.62703  Biso   1.000  C
  C184     1.0000 0.00203  0.35854  0.63648  Biso   1.000  C
  C185     1.0000 0.97912  0.36721  0.68656  Biso   1.000  C
  C186     1.0000 0.97972  0.32796  0.72555  Biso   1.000  C
  C187     1.0000 0.00393  0.23670  0.75781  Biso   1.000  C
  C188     1.0000 0.01056  0.24992  0.81140  Biso   1.000  C
  C189     1.0000 0.01054  0.21080  0.85057  Biso   1.000  C
  C190     1.0000 0.00404  0.15722  0.83734  Biso   1.000  C
  C191     1.0000 0.99778  0.14394  0.78373  Biso   1.000  C
  C192     1.0000 0.99765  0.18309  0.74459  Biso   1.000  C
  H107     1.0000 0.04451  0.30055  0.58974  Biso   1.000  H
  H108     1.0000 0.95919  0.40402  0.69526  Biso   1.000  H
  H109     1.0000 0.01583  0.22264  0.89130  Biso   1.000  H
  H110     1.0000 0.99234  0.10323  0.77189  Biso   1.000  H
  H111     1.0000 0.96073  0.33604  0.76296  Biso   1.000  H
  H112     1.0000 0.01639  0.29058  0.82314  Biso   1.000  H
  H113     1.0000 0.04533  0.23248  0.65751  Biso   1.000  H
  H114     1.0000 0.99165  0.17132  0.70395  Biso   1.000  H
  C193     1.0000 0.99727  0.71117  0.71581  Biso   1.000  C
  C194     1.0000 0.97385  0.66164  0.72490  Biso   1.000  C
  C195     1.0000 0.97435  0.62234  0.68595  Biso   1.000  C
  C196     1.0000 0.99809  0.63122  0.63631  Biso   1.000  C
  C197     1.0000 0.02138  0.68104  0.62736  Biso   1.000  C
  C198     1.0000 0.02105  0.72024  0.66643  Biso   1.000  C
  C199     1.0000 0.99708  0.75301  0.75764  Biso   1.000  C
  C200     1.0000 0.99134  0.80668  0.74438  Biso   1.000  C
  C201     1.0000 0.99149  0.84583  0.78353  Biso   1.000  C
  C202     1.0000 0.99721  0.83249  0.83717  Biso   1.000  C
  C203     1.0000 0.00273  0.77881  0.85047  Biso   1.000  C
  C204     1.0000 0.00276  0.73970  0.81131  Biso   1.000  C
  H115     1.0000 0.95466  0.58531  0.69427  Biso   1.000  H
  H116     1.0000 0.04147  0.68930  0.59054  Biso   1.000  H
  H117     1.0000 0.98687  0.88663  0.77165  Biso   1.000  H
  H118     1.0000 0.00758  0.76687  0.89123  Biso   1.000  H
  H119     1.0000 0.04047  0.75741  0.65823  Biso   1.000  H
  H120     1.0000 0.98603  0.81852  0.70367  Biso   1.000  H
  H121     1.0000 0.95420  0.65341  0.76193  Biso   1.000  H
  H122     1.0000 0.00813  0.69899  0.82312  Biso   1.000  H
  C205     1.0000 0.00183  0.71108  0.28345  Biso   1.000  C
  C206     1.0000 0.96920  0.66632  0.27862  Biso   1.000  C
  C207     1.0000 0.96878  0.62720  0.31775  Biso   1.000  C
  C208     1.0000 0.00114  0.63163  0.36259  Biso   1.000  C
  C209     1.0000 0.03364  0.67630  0.36763  Biso   1.000  C
  C210     1.0000 0.03395  0.71556  0.32861  Biso   1.000  C
  C211     1.0000 0.00230  0.75281  0.24163  Biso   1.000  C
  C212     1.0000 0.00538  0.80662  0.25509  Biso   1.000  C
  C213     1.0000 0.00539  0.84574  0.21593  Biso   1.000  C
  C214     1.0000 0.00250  0.83220  0.16208  Biso   1.000  C
  C215     1.0000 0.99971  0.77834  0.14863  Biso   1.000  C
  C216     1.0000 0.99953  0.73926  0.18782  Biso   1.000  C
  H123     1.0000 0.94299  0.59341  0.31315  Biso   1.000  H
  H124     1.0000 0.05912  0.68055  0.40169  Biso   1.000  H
  H125     1.0000 0.00748  0.88669  0.22799  Biso   1.000  H
  H126     1.0000 0.99752  0.76621  0.10770  Biso   1.000  H
  H127     1.0000 0.06003  0.74907  0.33341  Biso   1.000  H
  H128     1.0000 0.00691  0.81862  0.29608  Biso   1.000  H
  H129     1.0000 0.94336  0.66188  0.24488  Biso   1.000  H
  H130     1.0000 0.99784  0.69825  0.17589  Biso   1.000  H
  C217     1.0000 0.03947  0.15789  0.47367  Biso   1.000  C
  C218     1.0000 0.98540  0.15818  0.47337  Biso   1.000  C
  C219     1.0000 0.96894  0.10665  0.48259  Biso   1.000  C
  N13      1.0000 0.01186  0.07541  0.48986  Biso   1.000  N
  C220     1.0000 0.05499  0.10653  0.48414  Biso   1.000  C
  C221     1.0000 0.91534  0.09038  0.48919  Biso   1.000  C
  C222     1.0000 0.90069  0.03643  0.49756  Biso   1.000  C
  C223     1.0000 0.85020  0.01905  0.51043  Biso   1.000  C
  C224     1.0000 0.85144  0.96490  0.51121  Biso   1.000  C
  C225     1.0000 0.90219  0.94979  0.49761  Biso   1.000  C
  N14      1.0000 0.93185  0.99354  0.48913  Biso   1.000  N
  C226     1.0000 0.91834  0.89646  0.49066  Biso   1.000  C
  C227     1.0000 0.97163  0.88030  0.48403  Biso   1.000  C
  C228     1.0000 0.98717  0.82895  0.47356  Biso   1.000  C
  C229     1.0000 0.04124  0.82866  0.47334  Biso   1.000  C
  C230     1.0000 0.05768  0.88019  0.48262  Biso   1.000  C
  N15      1.0000 0.01475  0.91142  0.48984  Biso   1.000  N
  C231     1.0000 0.11126  0.89645  0.48934  Biso   1.000  C
  C232     1.0000 0.12590  0.95039  0.49778  Biso   1.000  C
  C233     1.0000 0.17635  0.96776  0.51077  Biso   1.000  C
  C234     1.0000 0.17512  0.02191  0.51155  Biso   1.000  C
  C235     1.0000 0.12440  0.03704  0.49783  Biso   1.000  C
  N16      1.0000 0.09475  0.99329  0.48927  Biso   1.000  N
  C236     1.0000 0.10827  0.09037  0.49084  Biso   1.000  C
  H131     1.0000 0.06441  0.19205  0.46775  Biso   1.000  H
  H132     1.0000 0.96143  0.19310  0.46831  Biso   1.000  H
  H133     1.0000 0.05739  0.99308  0.47269  Biso   1.000  H
  H134     1.0000 0.81512  0.04230  0.51723  Biso   1.000  H
  H135     1.0000 0.81811  0.93957  0.51972  Biso   1.000  H
  H136     1.0000 0.96224  0.79479  0.46757  Biso   1.000  H
  H137     1.0000 0.06523  0.79375  0.46829  Biso   1.000  H
  H138     1.0000 0.20843  0.04724  0.52015  Biso   1.000  H
  H139     1.0000 0.96926  0.99375  0.47265  Biso   1.000  H
  H140     1.0000 0.21140  0.94450  0.51767  Biso   1.000  H
  C237     1.0000 0.98592  0.47184  0.82620  Biso   1.000  C
  C238     1.0000 0.03999  0.47091  0.82702  Biso   1.000  C
  C239     1.0000 0.05519  0.48284  0.87812  Biso   1.000  C
  N17      1.0000 0.01193  0.49028  0.90866  Biso   1.000  N
  C240     1.0000 0.96915  0.48295  0.87728  Biso   1.000  C
  C241     1.0000 0.10816  0.49081  0.89444  Biso   1.000  C
  C242     1.0000 0.12284  0.50059  0.94760  Biso   1.000  C
  C243     1.0000 0.17071  0.52238  0.96258  Biso   1.000  C
  C244     1.0000 0.17104  0.52409  0.01675  Biso   1.000  C
  C245     1.0000 0.12364  0.50252  0.03391  Biso   1.000  C
  N18      1.0000 0.09420  0.48864  0.99129  Biso   1.000  N
  C246     1.0000 0.10939  0.49567  0.08798  Biso   1.000  C
  C247     1.0000 0.05586  0.48834  0.10371  Biso   1.000  C
  C248     1.0000 0.03961  0.47208  0.15345  Biso   1.000  C
  C249     1.0000 0.98556  0.47219  0.15320  Biso   1.000  C
  C250     1.0000 0.96999  0.48696  0.10290  Biso   1.000  C
  N19      1.0000 0.01306  0.49712  0.07275  Biso   1.000  N
  C251     1.0000 0.91667  0.49306  0.08675  Biso   1.000  C
  C252     1.0000 0.90077  0.50033  0.03341  Biso   1.000  C
  C253     1.0000 0.84939  0.51044  0.01769  Biso   1.000  C
  C254     1.0000 0.84891  0.50974  0.96352  Biso   1.000  C
  C255     1.0000 0.90023  0.49966  0.94672  Biso   1.000  C
  N20      1.0000 0.93135  0.49342  0.99000  Biso   1.000  N
  C256     1.0000 0.91554  0.49106  0.89296  Biso   1.000  C
  H141     1.0000 0.96227  0.46632  0.79115  Biso   1.000  H
  H142     1.0000 0.06514  0.46364  0.79328  Biso   1.000  H
  H143     1.0000 0.96976  0.47955  0.99038  Biso   1.000  H
  H144     1.0000 0.20203  0.53628  0.93707  Biso   1.000  H
  H145     1.0000 0.20261  0.54000  0.04072  Biso   1.000  H
  H146     1.0000 0.06400  0.46076  0.18661  Biso   1.000  H
  H147     1.0000 0.96078  0.46200  0.18643  Biso   1.000  H
  H148     1.0000 0.81372  0.51385  0.93977  Biso   1.000  H
  H149     1.0000 0.05909  0.46736  0.99199  Biso   1.000  H
  H150     1.0000 0.81504  0.51574  0.04249  Biso   1.000  H
  C257     1.0000 0.54836  0.83622  0.01832  Biso   1.000  C
  C258     1.0000 0.54950  0.83633  0.96424  Biso   1.000  C
  C259     1.0000 0.52456  0.88225  0.94796  Biso   1.000  C
  N21      1.0000 0.50898  0.91074  0.99056  Biso   1.000  N
  C260     1.0000 0.52287  0.88215  0.03370  Biso   1.000  C
  C261     1.0000 0.51493  0.89653  0.89453  Biso   1.000  C
  C262     1.0000 0.50392  0.94987  0.88069  Biso   1.000  C
  C263     1.0000 0.47753  0.96569  0.83538  Biso   1.000  C
  C264     1.0000 0.47758  0.01992  0.83511  Biso   1.000  C
  C265     1.0000 0.50401  0.03619  0.88025  Biso   1.000  C
  N22      1.0000 0.51908  0.99313  0.90842  Biso   1.000  N
  C266     1.0000 0.51455  0.08976  0.89378  Biso   1.000  C
  C267     1.0000 0.52486  0.10436  0.94700  Biso   1.000  C
  C268     1.0000 0.54731  0.15165  0.96320  Biso   1.000  C
  C269     1.0000 0.54699  0.15143  0.01736  Biso   1.000  C
  C270     1.0000 0.52514  0.10374  0.03263  Biso   1.000  C
  N23      1.0000 0.51189  0.07480  0.98964  Biso   1.000  N
  C271     1.0000 0.51432  0.08903  0.08539  Biso   1.000  C
  C272     1.0000 0.50218  0.03634  0.09944  Biso   1.000  C
  C273     1.0000 0.47789  0.02131  0.14606  Biso   1.000  C
  C274     1.0000 0.47681  0.96702  0.14640  Biso   1.000  C
  C275     1.0000 0.50134  0.95015  0.10034  Biso   1.000  C
  N24      1.0000 0.51589  0.99282  0.07150  Biso   1.000  N
  C276     1.0000 0.51190  0.89662  0.08685  Biso   1.000  C
  H151     1.0000 0.56531  0.80614  0.04347  Biso   1.000  H
  H152     1.0000 0.56743  0.80629  0.93973  Biso   1.000  H
  H153     1.0000 0.53895  0.99229  0.03744  Biso   1.000  H
  H154     1.0000 0.45961  0.94072  0.80571  Biso   1.000  H
  H155     1.0000 0.45958  0.04457  0.80522  Biso   1.000  H
  H156     1.0000 0.56257  0.18308  0.93864  Biso   1.000  H
  H157     1.0000 0.56142  0.18272  0.04261  Biso   1.000  H
  H158     1.0000 0.45996  0.94279  0.17727  Biso   1.000  H
  H159     1.0000 0.54283  0.99313  0.94203  Biso   1.000  H
  H160     1.0000 0.46252  0.04684  0.17668  Biso   1.000  H
  O33      1.0000 0.44219  0.62998  0.48980  Biso   1.000  O
  O34      1.0000 0.44104  0.35775  0.49186  Biso   1.000  O
  O35      1.0000 0.37708  0.49581  0.41894  Biso   1.000  O
  O36      1.0000 0.37732  0.49278  0.56253  Biso   1.000  O
  O37      1.0000 0.44182  0.49177  0.62677  Biso   1.000  O
  O38      1.0000 0.44141  0.49579  0.35458  Biso   1.000  O
  O39      1.0000 0.37691  0.42236  0.49270  Biso   1.000  O
  O40      1.0000 0.37749  0.56591  0.48855  Biso   1.000  O
  Zr7      1.0000 0.42015  0.49394  0.49068  Biso   1.000  Zr
  O41      1.0000 0.46524  0.44576  0.53853  Biso   1.000  O
  O42      1.0000 0.46546  0.54173  0.44273  Biso   1.000  O
  C277     1.0000 0.39315  0.61481  0.48849  Biso   1.000  C
  C278     1.0000 0.39215  0.37333  0.49300  Biso   1.000  C
  C279     1.0000 0.39243  0.49671  0.36994  Biso   1.000  C
  C280     1.0000 0.39280  0.49161  0.61148  Biso   1.000  C
  H161     1.0000 0.44269  0.42372  0.42038  Biso   1.000  H
  O43      1.0000 0.46534  0.44610  0.44293  Biso   1.000  O
  H162     1.0000 0.44354  0.56389  0.56096  Biso   1.000  H
  O44      1.0000 0.46593  0.54127  0.53838  Biso   1.000  O
  O45      1.0000 0.58433  0.35683  0.48939  Biso   1.000  O
  O46      1.0000 0.58559  0.62908  0.49197  Biso   1.000  O
  O47      1.0000 0.51444  0.42187  0.35441  Biso   1.000  O
  O48      1.0000 0.51189  0.42158  0.62665  Biso   1.000  O
  O49      1.0000 0.51559  0.56514  0.62676  Biso   1.000  O
  O50      1.0000 0.51181  0.56539  0.35458  Biso   1.000  O
  O51      1.0000 0.64923  0.49054  0.41846  Biso   1.000  O
  O52      1.0000 0.64968  0.49341  0.56197  Biso   1.000  O
  O53      1.0000 0.58465  0.49249  0.35423  Biso   1.000  O
  O54      1.0000 0.58541  0.49522  0.62648  Biso   1.000  O
  O55      1.0000 0.51448  0.35746  0.41871  Biso   1.000  O
  O56      1.0000 0.51186  0.62966  0.41900  Biso   1.000  O
  O57      1.0000 0.51562  0.62950  0.56241  Biso   1.000  O
  O58      1.0000 0.51085  0.35734  0.56219  Biso   1.000  O
  O59      1.0000 0.64907  0.42085  0.48801  Biso   1.000  O
  O60      1.0000 0.64972  0.56444  0.49235  Biso   1.000  O
  Zr8      1.0000 0.51289  0.40037  0.49049  Biso   1.000  Zr
  Zr9      1.0000 0.51369  0.58654  0.49069  Biso   1.000  Zr
  Zr10     1.0000 0.51313  0.49361  0.39747  Biso   1.000  Zr
  Zr11     1.0000 0.51352  0.49340  0.58370  Biso   1.000  Zr
  Zr12     1.0000 0.60647  0.49284  0.49035  Biso   1.000  Zr
  O61      1.0000 0.56161  0.54106  0.53841  Biso   1.000  O
  O62      1.0000 0.56093  0.44527  0.44242  Biso   1.000  O
  C281     1.0000 0.63338  0.37196  0.48798  Biso   1.000  C
  C282     1.0000 0.63449  0.61348  0.49287  Biso   1.000  C
  C283     1.0000 0.51510  0.37285  0.36972  Biso   1.000  C
  C284     1.0000 0.51063  0.37261  0.61122  Biso   1.000  C
  C285     1.0000 0.51639  0.61414  0.61140  Biso   1.000  C
  C286     1.0000 0.51117  0.61436  0.36999  Biso   1.000  C
  C287     1.0000 0.63360  0.49080  0.36955  Biso   1.000  C
  C288     1.0000 0.63435  0.49488  0.61095  Biso   1.000  C
  H163     1.0000 0.58370  0.56337  0.42042  Biso   1.000  H
  O63      1.0000 0.56111  0.54089  0.44294  Biso   1.000  O
  H164     1.0000 0.58327  0.42282  0.56058  Biso   1.000  H
  O64      1.0000 0.56084  0.44550  0.53812  Biso   1.000  O
  C289     1.0000 0.79565  0.20906  0.48770  Biso   1.000  C
  C290     1.0000 0.80393  0.17774  0.53276  Biso   1.000  C
  C291     1.0000 0.84347  0.13901  0.53345  Biso   1.000  C
  C292     1.0000 0.87515  0.12973  0.48867  Biso   1.000  C
  C293     1.0000 0.86657  0.16107  0.44351  Biso   1.000  C
  C294     1.0000 0.82764  0.20043  0.44318  Biso   1.000  C
  C295     1.0000 0.75394  0.25068  0.48724  Biso   1.000  C
  C296     1.0000 0.76489  0.30165  0.46815  Biso   1.000  C
  C297     1.0000 0.72594  0.34101  0.46860  Biso   1.000  C
  C298     1.0000 0.67474  0.33012  0.48722  Biso   1.000  C
  C299     1.0000 0.66365  0.27889  0.50568  Biso   1.000  C
  C300     1.0000 0.70289  0.23984  0.50613  Biso   1.000  C
  H165     1.0000 0.84978  0.11662  0.56934  Biso   1.000  H
  H166     1.0000 0.88986  0.15477  0.40819  Biso   1.000  H
  H167     1.0000 0.73585  0.37995  0.45401  Biso   1.000  H
  H168     1.0000 0.62476  0.26915  0.52053  Biso   1.000  H
  H169     1.0000 0.82194  0.22363  0.40773  Biso   1.000  H
  H170     1.0000 0.80393  0.31131  0.45367  Biso   1.000  H
  H171     1.0000 0.78041  0.18394  0.56791  Biso   1.000  H
  H172     1.0000 0.69315  0.20086  0.52075  Biso   1.000  H
  C301     1.0000 0.22929  0.21110  0.49298  Biso   1.000  C
  C302     1.0000 0.19060  0.20907  0.53280  Biso   1.000  C
  C303     1.0000 0.15161  0.16983  0.53229  Biso   1.000  C
  C304     1.0000 0.15004  0.13216  0.49162  Biso   1.000  C
  C305     1.0000 0.18846  0.13419  0.45172  Biso   1.000  C
  C306     1.0000 0.22779  0.17306  0.45251  Biso   1.000  C
  C307     1.0000 0.27106  0.25264  0.49362  Biso   1.000  C
  C308     1.0000 0.32378  0.23993  0.48183  Biso   1.000  C
  C309     1.0000 0.36302  0.27889  0.48215  Biso   1.000  C
  C310     1.0000 0.35050  0.33178  0.49376  Biso   1.000  C
  C311     1.0000 0.29771  0.34448  0.50556  Biso   1.000  C
  C312     1.0000 0.25856  0.30536  0.50576  Biso   1.000  C
  H173     1.0000 0.12254  0.16879  0.56362  Biso   1.000  H
  H174     1.0000 0.18791  0.10561  0.41993  Biso   1.000  H
  H175     1.0000 0.40316  0.26757  0.47279  Biso   1.000  H
  H176     1.0000 0.28657  0.38470  0.51481  Biso   1.000  H
  H177     1.0000 0.25664  0.17385  0.42098  Biso   1.000  H
  H178     1.0000 0.33483  0.19962  0.47287  Biso   1.000  H
  H179     1.0000 0.19099  0.23739  0.56481  Biso   1.000  H
  H180     1.0000 0.21826  0.31654  0.51458  Biso   1.000  H
  C313     1.0000 0.23089  0.77771  0.48809  Biso   1.000  C
  C314     1.0000 0.22247  0.80897  0.53317  Biso   1.000  C
  C315     1.0000 0.18296  0.84774  0.53377  Biso   1.000  C
  C316     1.0000 0.15144  0.85711  0.48890  Biso   1.000  C
  C317     1.0000 0.16016  0.82582  0.44372  Biso   1.000  C
  C318     1.0000 0.19907  0.78644  0.44346  Biso   1.000  C
  C319     1.0000 0.27259  0.73606  0.48771  Biso   1.000  C
  C320     1.0000 0.26180  0.68522  0.46817  Biso   1.000  C
  C321     1.0000 0.30075  0.64586  0.46863  Biso   1.000  C
  C322     1.0000 0.35178  0.65662  0.48777  Biso   1.000  C
  C323     1.0000 0.36273  0.70770  0.50671  Biso   1.000  C
  C324     1.0000 0.32349  0.74676  0.50711  Biso   1.000  C
  H181     1.0000 0.17655  0.87008  0.56967  Biso   1.000  H
  H182     1.0000 0.13699  0.83219  0.40833  Biso   1.000  H
  H183     1.0000 0.29100  0.60704  0.45358  Biso   1.000  H
  H184     1.0000 0.40150  0.71732  0.52194  Biso   1.000  H
  H185     1.0000 0.20489  0.76331  0.40799  Biso   1.000  H
  H186     1.0000 0.22288  0.67567  0.45328  Biso   1.000  H
  H187     1.0000 0.24584  0.80269  0.56841  Biso   1.000  H
  H188     1.0000 0.33313  0.78562  0.52207  Biso   1.000  H
  C325     1.0000 0.79735  0.77570  0.49274  Biso   1.000  C
  C326     1.0000 0.79888  0.81370  0.45224  Biso   1.000  C
  C327     1.0000 0.83820  0.85258  0.45147  Biso   1.000  C
  C328     1.0000 0.87659  0.85466  0.49141  Biso   1.000  C
  C329     1.0000 0.87499  0.81701  0.53209  Biso   1.000  C
  C330     1.0000 0.83600  0.77776  0.53259  Biso   1.000  C
  C331     1.0000 0.75559  0.73416  0.49338  Biso   1.000  C
  C332     1.0000 0.76808  0.68144  0.50556  Biso   1.000  C
  C333     1.0000 0.72894  0.64232  0.50539  Biso   1.000  C
  C334     1.0000 0.67614  0.65502  0.49358  Biso   1.000  C
  C335     1.0000 0.66363  0.70790  0.48192  Biso   1.000  C
  C336     1.0000 0.70287  0.74686  0.48156  Biso   1.000  C
  H189     1.0000 0.83878  0.88115  0.41966  Biso   1.000  H
  H190     1.0000 0.90403  0.81807  0.56346  Biso   1.000  H
  H191     1.0000 0.74007  0.60211  0.51467  Biso   1.000  H
  H192     1.0000 0.62349  0.71921  0.47253  Biso   1.000  H
  H193     1.0000 0.83559  0.74946  0.56462  Biso   1.000  H
  H194     1.0000 0.80838  0.67027  0.51439  Biso   1.000  H
  H195     1.0000 0.77006  0.81289  0.42069  Biso   1.000  H
  H196     1.0000 0.69183  0.78716  0.47257  Biso   1.000  H
  C337     1.0000 0.79653  0.49328  0.77372  Biso   1.000  C
  C338     1.0000 0.80545  0.53772  0.80571  Biso   1.000  C
  C339     1.0000 0.84479  0.53710  0.84461  Biso   1.000  C
  C340     1.0000 0.87575  0.49168  0.85324  Biso   1.000  C
  C341     1.0000 0.86630  0.44703  0.82143  Biso   1.000  C
  C342     1.0000 0.82755  0.44799  0.78193  Biso   1.000  C
  C343     1.0000 0.75506  0.49415  0.73191  Biso   1.000  C
  C344     1.0000 0.76589  0.47512  0.68091  Biso   1.000  C
  C345     1.0000 0.72701  0.47606  0.64153  Biso   1.000  C
  C346     1.0000 0.67601  0.49520  0.65243  Biso   1.000  C
  C347     1.0000 0.66512  0.51402  0.70356  Biso   1.000  C
  C348     1.0000 0.70431  0.51393  0.74266  Biso   1.000  C
  H197     1.0000 0.85148  0.57245  0.86774  Biso   1.000  H
  H198     1.0000 0.88870  0.41111  0.82751  Biso   1.000  H
  H199     1.0000 0.73671  0.46107  0.60269  Biso   1.000  H
  H200     1.0000 0.62636  0.52921  0.71326  Biso   1.000  H
  H201     1.0000 0.82118  0.41294  0.75831  Biso   1.000  H
  H202     1.0000 0.80472  0.46003  0.67132  Biso   1.000  H
  H203     1.0000 0.78257  0.57337  0.79996  Biso   1.000  H
  H204     1.0000 0.69470  0.52857  0.78166  Biso   1.000  H
  C349     1.0000 0.79553  0.49077  0.20715  Biso   1.000  C
  C350     1.0000 0.80985  0.53828  0.18228  Biso   1.000  C
  C351     1.0000 0.84948  0.53903  0.14369  Biso   1.000  C
  C352     1.0000 0.87477  0.49213  0.12835  Biso   1.000  C
  C353     1.0000 0.85999  0.44450  0.15262  Biso   1.000  C
  C354     1.0000 0.82121  0.44392  0.19211  Biso   1.000  C
  C355     1.0000 0.75389  0.49017  0.24860  Biso   1.000  C
  C356     1.0000 0.76309  0.46593  0.29766  Biso   1.000  C
  C357     1.0000 0.72424  0.46645  0.33709  Biso   1.000  C
  C358     1.0000 0.67487  0.49013  0.32786  Biso   1.000  C
  C359     1.0000 0.66545  0.51367  0.27846  Biso   1.000  C
  C360     1.0000 0.70472  0.51421  0.23951  Biso   1.000  C
  H205     1.0000 0.86030  0.57616  0.12548  Biso   1.000  H
  H206     1.0000 0.87885  0.40787  0.14121  Biso   1.000  H
  H207     1.0000 0.73263  0.44785  0.37465  Biso   1.000  H
  H208     1.0000 0.62794  0.53248  0.27023  Biso   1.000  H
  H209     1.0000 0.81067  0.40674  0.21040  Biso   1.000  H
  H210     1.0000 0.80073  0.44735  0.30577  Biso   1.000  H
  H211     1.0000 0.79089  0.57496  0.19333  Biso   1.000  H
  H212     1.0000 0.69653  0.53295  0.20196  Biso   1.000  H
  C361     1.0000 0.22998  0.49902  0.20647  Biso   1.000  C
  C362     1.0000 0.18316  0.52820  0.21271  Biso   1.000  C
  C363     1.0000 0.14382  0.52745  0.17381  Biso   1.000  C
  C364     1.0000 0.14984  0.49732  0.12734  Biso   1.000  C
  C365     1.0000 0.19721  0.46872  0.12094  Biso   1.000  C
  C366     1.0000 0.23652  0.46947  0.15989  Biso   1.000  C
  C367     1.0000 0.27164  0.49916  0.24841  Biso   1.000  C
  C368     1.0000 0.32556  0.49896  0.23504  Biso   1.000  C
  C369     1.0000 0.36456  0.49844  0.27430  Biso   1.000  C
  C370     1.0000 0.35083  0.49809  0.32817  Biso   1.000  C
  C371     1.0000 0.29689  0.49861  0.34155  Biso   1.000  C
  C372     1.0000 0.25790  0.49914  0.30226  Biso   1.000  C
  H213     1.0000 0.10894  0.55149  0.17968  Biso   1.000  H
  H214     1.0000 0.20325  0.44432  0.08635  Biso   1.000  H
  H215     1.0000 0.40558  0.49828  0.26227  Biso   1.000  H
  H216     1.0000 0.28462  0.49828  0.38249  Biso   1.000  H
  H217     1.0000 0.27163  0.44586  0.15396  Biso   1.000  H
  H218     1.0000 0.33774  0.49977  0.19409  Biso   1.000  H
  H219     1.0000 0.17717  0.55237  0.24744  Biso   1.000  H
  H220     1.0000 0.21686  0.49859  0.31415  Biso   1.000  H
  C373     1.0000 0.23051  0.49165  0.77476  Biso   1.000  C
  C374     1.0000 0.18966  0.52933  0.77383  Biso   1.000  C
  C375     1.0000 0.15039  0.52946  0.81281  Biso   1.000  C
  C376     1.0000 0.15063  0.49153  0.85328  Biso   1.000  C
  C377     1.0000 0.19159  0.45418  0.85462  Biso   1.000  C
  C378     1.0000 0.23113  0.45428  0.81589  Biso   1.000  C
  C379     1.0000 0.27211  0.49124  0.73291  Biso   1.000  C
  C380     1.0000 0.32539  0.48227  0.74578  Biso   1.000  C
  C381     1.0000 0.36442  0.48232  0.70653  Biso   1.000  C
  C382     1.0000 0.35122  0.49095  0.65323  Biso   1.000  C
  C383     1.0000 0.29782  0.49948  0.64036  Biso   1.000  C
  C384     1.0000 0.25888  0.49983  0.67967  Biso   1.000  C
  H221     1.0000 0.11958  0.55906  0.81134  Biso   1.000  H
  H222     1.0000 0.19265  0.42463  0.88549  Biso   1.000  H
  H223     1.0000 0.40502  0.47554  0.71806  Biso   1.000  H
  H224     1.0000 0.28602  0.50626  0.59984  Biso   1.000  H
  H225     1.0000 0.26170  0.42446  0.81758  Biso   1.000  H
  H226     1.0000 0.33705  0.47601  0.78641  Biso   1.000  H
  H227     1.0000 0.18842  0.55916  0.74325  Biso   1.000  H
  H228     1.0000 0.21819  0.50621  0.66825  Biso   1.000  H
  C385     1.0000 0.51081  0.20893  0.77366  Biso   1.000  C
  C386     1.0000 0.53538  0.15994  0.76454  Biso   1.000  C
  C387     1.0000 0.53634  0.12084  0.80372  Biso   1.000  C
  C388     1.0000 0.51307  0.12946  0.85361  Biso   1.000  C
  C389     1.0000 0.48813  0.17853  0.86235  Biso   1.000  C
  C390     1.0000 0.48701  0.21749  0.82309  Biso   1.000  C
  C391     1.0000 0.51018  0.25094  0.73198  Biso   1.000  C
  C392     1.0000 0.51492  0.30464  0.74554  Biso   1.000  C
  C393     1.0000 0.51466  0.34396  0.70658  Biso   1.000  C
  C394     1.0000 0.50985  0.33080  0.65281  Biso   1.000  C
  C395     1.0000 0.50495  0.27712  0.63923  Biso   1.000  C
  C396     1.0000 0.50504  0.23782  0.67822  Biso   1.000  C
  H229     1.0000 0.55688  0.08427  0.79543  Biso   1.000  H
  H230     1.0000 0.46803  0.18641  0.89925  Biso   1.000  H
  H231     1.0000 0.51878  0.38474  0.71871  Biso   1.000  H
  H232     1.0000 0.50090  0.26531  0.59835  Biso   1.000  H
  H233     1.0000 0.46659  0.25412  0.83127  Biso   1.000  H
  H234     1.0000 0.51978  0.31638  0.78633  Biso   1.000  H
  H235     1.0000 0.55495  0.15208  0.72739  Biso   1.000  H
  H236     1.0000 0.50043  0.19708  0.66617  Biso   1.000  H
  C397     1.0000 0.51653  0.77722  0.77440  Biso   1.000  C
  C398     1.0000 0.53924  0.82710  0.76541  Biso   1.000  C
  C399     1.0000 0.53853  0.86620  0.80459  Biso   1.000  C
  C400     1.0000 0.51529  0.85675  0.85436  Biso   1.000  C
  C401     1.0000 0.49238  0.80667  0.86303  Biso   1.000  C
  C402     1.0000 0.49298  0.76768  0.82378  Biso   1.000  C
  C403     1.0000 0.51719  0.73542  0.73252  Biso   1.000  C
  C404     1.0000 0.52382  0.68183  0.74574  Biso   1.000  C
  C405     1.0000 0.52380  0.64266  0.70662  Biso   1.000  C
  C406     1.0000 0.51730  0.65589  0.65304  Biso   1.000  C
  C407     1.0000 0.51104  0.70950  0.63976  Biso   1.000  C
  C408     1.0000 0.51091  0.74864  0.67891  Biso   1.000  C
  H237     1.0000 0.55777  0.90349  0.79637  Biso   1.000  H
  H238     1.0000 0.47245  0.79797  0.89984  Biso   1.000  H
  H239     1.0000 0.52909  0.60193  0.71846  Biso   1.000  H
  H240     1.0000 0.50560  0.72134  0.59905  Biso   1.000  H
  H241     1.0000 0.47399  0.73027  0.83186  Biso   1.000  H
  H242     1.0000 0.52965  0.67009  0.78640  Biso   1.000  H
  H243     1.0000 0.55859  0.83572  0.72830  Biso   1.000  H
  H244     1.0000 0.50491  0.78928  0.66714  Biso   1.000  H
  C409     1.0000 0.51053  0.77742  0.20699  Biso   1.000  C
  C410     1.0000 0.48711  0.76833  0.15746  Biso   1.000  C
  C411     1.0000 0.48761  0.80728  0.11816  Biso   1.000  C
  C412     1.0000 0.51135  0.85692  0.12704  Biso   1.000  C
  C413     1.0000 0.53464  0.86587  0.17686  Biso   1.000  C
  C414     1.0000 0.53431  0.82680  0.21606  Biso   1.000  C
  C415     1.0000 0.51034  0.73559  0.24883  Biso   1.000  C
  C416     1.0000 0.50460  0.74885  0.30250  Biso   1.000  C
  C417     1.0000 0.50475  0.70970  0.34165  Biso   1.000  C
  C418     1.0000 0.51047  0.65606  0.32831  Biso   1.000  C
  C419     1.0000 0.51599  0.64276  0.27463  Biso   1.000  C
  C420     1.0000 0.51602  0.68192  0.23552  Biso   1.000  C
  H245     1.0000 0.46792  0.79896  0.08113  Biso   1.000  H
  H246     1.0000 0.55473  0.90269  0.18512  Biso   1.000  H
  H247     1.0000 0.50013  0.72158  0.38245  Biso   1.000  H
  H248     1.0000 0.52084  0.60200  0.26269  Biso   1.000  H
  H249     1.0000 0.55373  0.83500  0.25323  Biso   1.000  H
  H250     1.0000 0.49929  0.78956  0.31434  Biso   1.000  H
  H251     1.0000 0.46746  0.73130  0.14923  Biso   1.000  H
  H252     1.0000 0.52139  0.67011  0.19481  Biso   1.000  H
  C421     1.0000 0.51509  0.20978  0.20690  Biso   1.000  C
  C422     1.0000 0.48246  0.21461  0.16214  Biso   1.000  C
  C423     1.0000 0.48204  0.17548  0.12302  Biso   1.000  C
  C424     1.0000 0.51440  0.13064  0.12745  Biso   1.000  C
  C425     1.0000 0.54690  0.12560  0.17212  Biso   1.000  C
  C426     1.0000 0.54721  0.16462  0.21138  Biso   1.000  C
  C427     1.0000 0.51556  0.25160  0.24863  Biso   1.000  C
  C428     1.0000 0.51864  0.23814  0.30244  Biso   1.000  C
  C429     1.0000 0.51865  0.27730  0.34156  Biso   1.000  C
  C430     1.0000 0.51576  0.33115  0.32802  Biso   1.000  C
  C431     1.0000 0.51297  0.34460  0.27416  Biso   1.000  C
  C432     1.0000 0.51279  0.30541  0.23508  Biso   1.000  C
  H253     1.0000 0.45625  0.18008  0.08923  Biso   1.000  H
  H254     1.0000 0.57238  0.09154  0.17637  Biso   1.000  H
  H255     1.0000 0.52074  0.26524  0.38251  Biso   1.000  H
  H256     1.0000 0.51078  0.38553  0.26203  Biso   1.000  H
  H257     1.0000 0.57329  0.15982  0.24489  Biso   1.000  H
  H258     1.0000 0.52017  0.19715  0.31444  Biso   1.000  H
  H259     1.0000 0.45662  0.24835  0.15770  Biso   1.000  H
