data_image0
_cell_length_a       33.97
_cell_length_b       33.97
_cell_length_c       33.97
_cell_angle_alpha    90
_cell_angle_beta     90
_cell_angle_gamma    90

_symmetry_space_group_name_H-M    "P 1"
_symmetry_int_tables_number       1

loop_
  _symmetry_equiv_pos_as_xyz
  'x, y, z'

loop_
  _atom_site_label
  _atom_site_occupancy
  _atom_site_fract_x
  _atom_site_fract_y
  _atom_site_fract_z
  _atom_site_thermal_displace_type
  _atom_site_B_iso_or_equiv
  _atom_site_type_symbol
  Cu1      1.0000 0.00000  0.46110  0.00000  Biso   1.000  Cu
  Cu2      1.0000 0.50000  0.50000  0.78218  Biso   1.000  Cu
  Cu3      1.0000 0.78218  0.50000  0.50000  Biso   1.000  Cu
  Cu4      1.0000 0.50000  0.50000  0.29502  Biso   1.000  Cu
  Cu5      1.0000 0.21782  0.50000  0.50000  Biso   1.000  Cu
  Cu6      1.0000 0.50000  0.50000  0.21782  Biso   1.000  Cu
  Cu7      1.0000 0.00000  0.00000  0.46110  Biso   1.000  Cu
  Cu8      1.0000 0.70498  0.50000  0.50000  Biso   1.000  Cu
  Cu9      1.0000 0.50000  0.70498  0.50000  Biso   1.000  Cu
  Cu10     1.0000 0.29502  0.50000  0.50000  Biso   1.000  Cu
  Cu11     1.0000 0.50000  0.21782  0.50000  Biso   1.000  Cu
  Cu12     1.0000 0.00000  0.53890  0.00000  Biso   1.000  Cu
  Cu13     1.0000 0.00000  0.00000  0.53890  Biso   1.000  Cu
  Cu14     1.0000 0.46110  0.00000  0.00000  Biso   1.000  Cu
  Cu15     1.0000 0.50000  0.50000  0.70498  Biso   1.000  Cu
  Cu16     1.0000 0.50000  0.78218  0.50000  Biso   1.000  Cu
  Cu17     1.0000 0.50000  0.29502  0.50000  Biso   1.000  Cu
  Cu18     1.0000 0.53890  0.00000  0.00000  Biso   1.000  Cu
  H1       1.0000 0.80540  0.50000  0.69200  Biso   1.000  H
  H2       1.0000 0.19460  0.50000  0.30800  Biso   1.000  H
  H3       1.0000 0.19460  0.69200  0.50000  Biso   1.000  H
  H4       1.0000 0.15540  0.54980  0.79970  Biso   1.000  H
  H5       1.0000 0.44080  0.08840  0.08840  Biso   1.000  H
  H6       1.0000 0.45020  0.15540  0.79970  Biso   1.000  H
  H7       1.0000 0.20500  0.24770  0.54990  Biso   1.000  H
  H8       1.0000 0.91160  0.91160  0.55920  Biso   1.000  H
  H9       1.0000 0.50000  0.62440  0.80340  Biso   1.000  H
  H10      1.0000 0.54990  0.20500  0.24770  Biso   1.000  H
  H11      1.0000 0.84460  0.54980  0.79970  Biso   1.000  H
  H12      1.0000 0.24770  0.54990  0.20500  Biso   1.000  H
  H13      1.0000 0.91160  0.44080  0.91160  Biso   1.000  H
  H14      1.0000 0.68490  0.37430  0.50000  Biso   1.000  H
  H15      1.0000 0.79500  0.75230  0.54990  Biso   1.000  H
  H16      1.0000 0.80340  0.62440  0.50000  Biso   1.000  H
  H17      1.0000 0.79500  0.54990  0.24770  Biso   1.000  H
  H18      1.0000 0.79970  0.84460  0.54980  Biso   1.000  H
  H19      1.0000 0.19660  0.37560  0.50000  Biso   1.000  H
  H20      1.0000 0.50000  0.30800  0.19460  Biso   1.000  H
  H21      1.0000 0.86320  0.44170  0.86320  Biso   1.000  H
  H22      1.0000 0.54990  0.75230  0.79500  Biso   1.000  H
  H23      1.0000 0.79500  0.24770  0.54990  Biso   1.000  H
  H24      1.0000 0.62570  0.68490  0.50000  Biso   1.000  H
  H25      1.0000 0.50000  0.80340  0.37560  Biso   1.000  H
  H26      1.0000 0.45010  0.24770  0.20500  Biso   1.000  H
  H27      1.0000 0.79970  0.15540  0.45020  Biso   1.000  H
  H28      1.0000 0.15540  0.45020  0.79970  Biso   1.000  H
  H29      1.0000 0.91160  0.08840  0.44080  Biso   1.000  H
  H30      1.0000 0.19460  0.50000  0.69200  Biso   1.000  H
  H31      1.0000 0.50000  0.19660  0.37560  Biso   1.000  H
  H32      1.0000 0.62570  0.50000  0.68490  Biso   1.000  H
  H33      1.0000 0.62440  0.50000  0.80340  Biso   1.000  H
  H34      1.0000 0.44080  0.08840  0.91160  Biso   1.000  H
  H35      1.0000 0.50000  0.62440  0.19660  Biso   1.000  H
  H36      1.0000 0.50000  0.37560  0.80340  Biso   1.000  H
  H37      1.0000 0.08840  0.91160  0.55920  Biso   1.000  H
  H38      1.0000 0.13680  0.13680  0.55830  Biso   1.000  H
  H39      1.0000 0.55830  0.13680  0.13680  Biso   1.000  H
  H40      1.0000 0.84460  0.54980  0.20030  Biso   1.000  H
  H41      1.0000 0.15540  0.79970  0.45020  Biso   1.000  H
  H42      1.0000 0.45010  0.75230  0.79500  Biso   1.000  H
  H43      1.0000 0.55920  0.91160  0.91160  Biso   1.000  H
  H44      1.0000 0.55920  0.08840  0.91160  Biso   1.000  H
  H45      1.0000 0.45010  0.79500  0.75230  Biso   1.000  H
  H46      1.0000 0.50000  0.69200  0.19460  Biso   1.000  H
  H47      1.0000 0.54980  0.79970  0.84460  Biso   1.000  H
  H48      1.0000 0.20030  0.15540  0.54980  Biso   1.000  H
  H49      1.0000 0.31510  0.37430  0.50000  Biso   1.000  H
  H50      1.0000 0.50000  0.37430  0.68490  Biso   1.000  H
  H51      1.0000 0.24770  0.20500  0.45010  Biso   1.000  H
  H52      1.0000 0.15540  0.45020  0.20030  Biso   1.000  H
  H53      1.0000 0.79500  0.75230  0.45010  Biso   1.000  H
  H54      1.0000 0.20030  0.45020  0.84460  Biso   1.000  H
  H55      1.0000 0.79970  0.54980  0.15540  Biso   1.000  H
  H56      1.0000 0.19660  0.50000  0.37560  Biso   1.000  H
  H57      1.0000 0.91160  0.55920  0.08840  Biso   1.000  H
  H58      1.0000 0.13680  0.86320  0.44170  Biso   1.000  H
  H59      1.0000 0.20500  0.54990  0.75230  Biso   1.000  H
  H60      1.0000 0.15540  0.79970  0.54980  Biso   1.000  H
  H61      1.0000 0.75230  0.45010  0.20500  Biso   1.000  H
  H62      1.0000 0.50000  0.31510  0.62570  Biso   1.000  H
  H63      1.0000 0.30800  0.80540  0.50000  Biso   1.000  H
  H64      1.0000 0.54990  0.24770  0.20500  Biso   1.000  H
  H65      1.0000 0.62570  0.31510  0.50000  Biso   1.000  H
  H66      1.0000 0.15540  0.20030  0.45020  Biso   1.000  H
  H67      1.0000 0.84460  0.45020  0.20030  Biso   1.000  H
  H68      1.0000 0.75230  0.54990  0.20500  Biso   1.000  H
  H69      1.0000 0.20030  0.84460  0.45020  Biso   1.000  H
  H70      1.0000 0.24770  0.45010  0.20500  Biso   1.000  H
  H71      1.0000 0.20500  0.75230  0.54990  Biso   1.000  H
  H72      1.0000 0.86320  0.44170  0.13680  Biso   1.000  H
  H73      1.0000 0.80540  0.30800  0.50000  Biso   1.000  H
  H74      1.0000 0.44170  0.13680  0.13680  Biso   1.000  H
  H75      1.0000 0.45010  0.24770  0.79500  Biso   1.000  H
  H76      1.0000 0.54990  0.79500  0.75230  Biso   1.000  H
  H77      1.0000 0.69200  0.19460  0.50000  Biso   1.000  H
  H78      1.0000 0.45020  0.79970  0.15540  Biso   1.000  H
  H79      1.0000 0.62440  0.19660  0.50000  Biso   1.000  H
  H80      1.0000 0.91160  0.08840  0.55920  Biso   1.000  H
  H81      1.0000 0.50000  0.80540  0.30800  Biso   1.000  H
  H82      1.0000 0.75230  0.54990  0.79500  Biso   1.000  H
  H83      1.0000 0.31510  0.50000  0.62570  Biso   1.000  H
  H84      1.0000 0.13680  0.13680  0.44170  Biso   1.000  H
  H85      1.0000 0.45010  0.20500  0.75230  Biso   1.000  H
  H86      1.0000 0.54980  0.20030  0.15540  Biso   1.000  H
  H87      1.0000 0.37430  0.31510  0.50000  Biso   1.000  H
  H88      1.0000 0.79970  0.54980  0.84460  Biso   1.000  H
  H89      1.0000 0.50000  0.62570  0.68490  Biso   1.000  H
  H90      1.0000 0.08840  0.55920  0.08840  Biso   1.000  H
  H91      1.0000 0.79970  0.45020  0.84460  Biso   1.000  H
  H92      1.0000 0.13680  0.44170  0.13680  Biso   1.000  H
  H93      1.0000 0.20500  0.75230  0.45010  Biso   1.000  H
  H94      1.0000 0.24770  0.79500  0.54990  Biso   1.000  H
  H95      1.0000 0.50000  0.37560  0.19660  Biso   1.000  H
  H96      1.0000 0.37560  0.19660  0.50000  Biso   1.000  H
  H97      1.0000 0.75230  0.45010  0.79500  Biso   1.000  H
  H98      1.0000 0.45020  0.79970  0.84460  Biso   1.000  H
  H99      1.0000 0.19660  0.62440  0.50000  Biso   1.000  H
  H100     1.0000 0.55830  0.86320  0.13680  Biso   1.000  H
  H101     1.0000 0.50000  0.19460  0.69200  Biso   1.000  H
  H102     1.0000 0.69200  0.80540  0.50000  Biso   1.000  H
  H103     1.0000 0.75230  0.20500  0.54990  Biso   1.000  H
  H104     1.0000 0.86320  0.55830  0.13680  Biso   1.000  H
  H105     1.0000 0.44170  0.86320  0.13680  Biso   1.000  H
  H106     1.0000 0.50000  0.30800  0.80540  Biso   1.000  H
  H107     1.0000 0.79970  0.45020  0.15540  Biso   1.000  H
  H108     1.0000 0.62440  0.80340  0.50000  Biso   1.000  H
  H109     1.0000 0.20030  0.54980  0.15540  Biso   1.000  H
  H110     1.0000 0.79500  0.45010  0.24770  Biso   1.000  H
  H111     1.0000 0.31510  0.62570  0.50000  Biso   1.000  H
  H112     1.0000 0.50000  0.19460  0.30800  Biso   1.000  H
  H113     1.0000 0.08840  0.44080  0.08840  Biso   1.000  H
  H114     1.0000 0.84460  0.20030  0.45020  Biso   1.000  H
  H115     1.0000 0.54980  0.20030  0.84460  Biso   1.000  H
  H116     1.0000 0.86320  0.13680  0.55830  Biso   1.000  H
  H117     1.0000 0.91160  0.44080  0.08840  Biso   1.000  H
  H118     1.0000 0.80540  0.50000  0.30800  Biso   1.000  H
  H119     1.0000 0.24770  0.79500  0.45010  Biso   1.000  H
  H120     1.0000 0.45020  0.84460  0.79970  Biso   1.000  H
  H121     1.0000 0.69200  0.50000  0.80540  Biso   1.000  H
  H122     1.0000 0.20030  0.54980  0.84460  Biso   1.000  H
  H123     1.0000 0.24770  0.20500  0.54990  Biso   1.000  H
  H124     1.0000 0.54980  0.15540  0.79970  Biso   1.000  H
  H125     1.0000 0.13680  0.86320  0.55830  Biso   1.000  H
  H126     1.0000 0.15540  0.54980  0.20030  Biso   1.000  H
  H127     1.0000 0.86320  0.55830  0.86320  Biso   1.000  H
  H128     1.0000 0.37430  0.68490  0.50000  Biso   1.000  H
  H129     1.0000 0.30800  0.50000  0.19460  Biso   1.000  H
  H130     1.0000 0.54980  0.15540  0.20030  Biso   1.000  H
  H131     1.0000 0.50000  0.68490  0.62570  Biso   1.000  H
  H132     1.0000 0.45020  0.84460  0.20030  Biso   1.000  H
  H133     1.0000 0.62570  0.50000  0.31510  Biso   1.000  H
  H134     1.0000 0.37560  0.80340  0.50000  Biso   1.000  H
  H135     1.0000 0.80340  0.50000  0.62440  Biso   1.000  H
  H136     1.0000 0.45020  0.15540  0.20030  Biso   1.000  H
  H137     1.0000 0.50000  0.37430  0.31510  Biso   1.000  H
  H138     1.0000 0.20500  0.54990  0.24770  Biso   1.000  H
  H139     1.0000 0.84460  0.79970  0.54980  Biso   1.000  H
  H140     1.0000 0.69200  0.50000  0.19460  Biso   1.000  H
  H141     1.0000 0.24770  0.45010  0.79500  Biso   1.000  H
  H142     1.0000 0.84460  0.79970  0.45020  Biso   1.000  H
  H143     1.0000 0.20500  0.24770  0.45010  Biso   1.000  H
  H144     1.0000 0.54990  0.20500  0.75230  Biso   1.000  H
  H145     1.0000 0.86320  0.86320  0.55830  Biso   1.000  H
  H146     1.0000 0.50000  0.80340  0.62440  Biso   1.000  H
  H147     1.0000 0.13680  0.55830  0.13680  Biso   1.000  H
  H148     1.0000 0.62440  0.50000  0.19660  Biso   1.000  H
  H149     1.0000 0.54980  0.79970  0.15540  Biso   1.000  H
  H150     1.0000 0.55920  0.08840  0.08840  Biso   1.000  H
  H151     1.0000 0.54990  0.24770  0.79500  Biso   1.000  H
  H152     1.0000 0.55830  0.13680  0.86320  Biso   1.000  H
  H153     1.0000 0.79500  0.24770  0.45010  Biso   1.000  H
  H154     1.0000 0.50000  0.69200  0.80540  Biso   1.000  H
  H155     1.0000 0.80340  0.37560  0.50000  Biso   1.000  H
  H156     1.0000 0.86320  0.86320  0.44170  Biso   1.000  H
  H157     1.0000 0.50000  0.19660  0.62440  Biso   1.000  H
  H158     1.0000 0.44080  0.91160  0.91160  Biso   1.000  H
  H159     1.0000 0.15540  0.20030  0.54980  Biso   1.000  H
  H160     1.0000 0.45020  0.20030  0.15540  Biso   1.000  H
  H161     1.0000 0.20030  0.84460  0.54980  Biso   1.000  H
  H162     1.0000 0.79970  0.15540  0.54980  Biso   1.000  H
  H163     1.0000 0.08840  0.44080  0.91160  Biso   1.000  H
  H164     1.0000 0.45010  0.20500  0.24770  Biso   1.000  H
  H165     1.0000 0.30800  0.50000  0.80540  Biso   1.000  H
  H166     1.0000 0.55830  0.86320  0.86320  Biso   1.000  H
  H167     1.0000 0.54980  0.84460  0.79970  Biso   1.000  H
  H168     1.0000 0.84460  0.45020  0.79970  Biso   1.000  H
  H169     1.0000 0.44080  0.91160  0.08840  Biso   1.000  H
  H170     1.0000 0.50000  0.68490  0.37430  Biso   1.000  H
  H171     1.0000 0.30800  0.19460  0.50000  Biso   1.000  H
  H172     1.0000 0.13680  0.44170  0.86320  Biso   1.000  H
  H173     1.0000 0.75230  0.79500  0.54990  Biso   1.000  H
  H174     1.0000 0.37430  0.50000  0.68490  Biso   1.000  H
  H175     1.0000 0.20500  0.45010  0.24770  Biso   1.000  H
  H176     1.0000 0.20500  0.45010  0.75230  Biso   1.000  H
  H177     1.0000 0.13680  0.55830  0.86320  Biso   1.000  H
  H178     1.0000 0.08840  0.55920  0.91160  Biso   1.000  H
  H179     1.0000 0.68490  0.50000  0.37430  Biso   1.000  H
  H180     1.0000 0.86320  0.13680  0.44170  Biso   1.000  H
  H181     1.0000 0.68490  0.50000  0.62570  Biso   1.000  H
  H182     1.0000 0.45010  0.75230  0.20500  Biso   1.000  H
  H183     1.0000 0.20030  0.15540  0.45020  Biso   1.000  H
  H184     1.0000 0.45010  0.79500  0.24770  Biso   1.000  H
  H185     1.0000 0.55920  0.91160  0.08840  Biso   1.000  H
  H186     1.0000 0.31510  0.50000  0.37430  Biso   1.000  H
  H187     1.0000 0.44170  0.86320  0.86320  Biso   1.000  H
  H188     1.0000 0.19460  0.30800  0.50000  Biso   1.000  H
  H189     1.0000 0.79500  0.45010  0.75230  Biso   1.000  H
  H190     1.0000 0.75230  0.20500  0.45010  Biso   1.000  H
  H191     1.0000 0.37430  0.50000  0.31510  Biso   1.000  H
  H192     1.0000 0.37560  0.50000  0.19660  Biso   1.000  H
  H193     1.0000 0.80540  0.69200  0.50000  Biso   1.000  H
  H194     1.0000 0.84460  0.20030  0.54980  Biso   1.000  H
  H195     1.0000 0.91160  0.91160  0.44080  Biso   1.000  H
  H196     1.0000 0.54990  0.75230  0.20500  Biso   1.000  H
  H197     1.0000 0.50000  0.31510  0.37430  Biso   1.000  H
  H198     1.0000 0.08840  0.08840  0.44080  Biso   1.000  H
  H199     1.0000 0.50000  0.62570  0.31510  Biso   1.000  H
  H200     1.0000 0.08840  0.08840  0.55920  Biso   1.000  H
  H201     1.0000 0.50000  0.80540  0.69200  Biso   1.000  H
  H202     1.0000 0.79970  0.84460  0.45020  Biso   1.000  H
  H203     1.0000 0.45020  0.20030  0.84460  Biso   1.000  H
  H204     1.0000 0.19660  0.50000  0.62440  Biso   1.000  H
  H205     1.0000 0.75230  0.79500  0.45010  Biso   1.000  H
  H206     1.0000 0.24770  0.54990  0.79500  Biso   1.000  H
  H207     1.0000 0.20030  0.45020  0.15540  Biso   1.000  H
  H208     1.0000 0.08840  0.91160  0.44080  Biso   1.000  H
  H209     1.0000 0.54990  0.79500  0.24770  Biso   1.000  H
  H210     1.0000 0.79500  0.54990  0.75230  Biso   1.000  H
  H211     1.0000 0.54980  0.84460  0.20030  Biso   1.000  H
  H212     1.0000 0.80340  0.50000  0.37560  Biso   1.000  H
  H213     1.0000 0.37560  0.50000  0.80340  Biso   1.000  H
  H214     1.0000 0.44170  0.13680  0.86320  Biso   1.000  H
  H215     1.0000 0.91160  0.55920  0.91160  Biso   1.000  H
  H216     1.0000 0.68490  0.62570  0.50000  Biso   1.000  H
  C1       1.0000 0.23042  0.76958  0.50000  Biso   1.000  C
  C2       1.0000 0.52962  0.22935  0.79632  Biso   1.000  C
  C3       1.0000 0.78139  0.50000  0.67879  Biso   1.000  C
  C4       1.0000 0.52977  0.79934  0.82588  Biso   1.000  C
  C5       1.0000 0.78139  0.32121  0.50000  Biso   1.000  C
  C6       1.0000 0.17412  0.79934  0.47023  Biso   1.000  C
  C7       1.0000 0.67879  0.78139  0.50000  Biso   1.000  C
  C8       1.0000 0.76958  0.50000  0.76958  Biso   1.000  C
  C9       1.0000 0.52962  0.77065  0.20368  Biso   1.000  C
  C10      1.0000 0.50000  0.22005  0.63859  Biso   1.000  C
  C11      1.0000 0.25621  0.50000  0.57439  Biso   1.000  C
  C12      1.0000 0.23042  0.23042  0.50000  Biso   1.000  C
  C13      1.0000 0.52977  0.82588  0.20066  Biso   1.000  C
  C14      1.0000 0.94784  0.94784  0.50000  Biso   1.000  C
  C15      1.0000 0.87291  0.53461  0.12709  Biso   1.000  C
  C16      1.0000 0.22005  0.50000  0.36141  Biso   1.000  C
  C17      1.0000 0.17273  0.82727  0.50000  Biso   1.000  C
  C18      1.0000 0.74381  0.61808  0.50000  Biso   1.000  C
  C19      1.0000 0.20066  0.17412  0.52977  Biso   1.000  C
  C20      1.0000 0.50000  0.29117  0.36101  Biso   1.000  C
  C21      1.0000 0.50000  0.05216  0.05216  Biso   1.000  C
  C22      1.0000 0.77065  0.47038  0.79632  Biso   1.000  C
  C23      1.0000 0.12709  0.53461  0.12709  Biso   1.000  C
  C24      1.0000 0.47023  0.79934  0.17412  Biso   1.000  C
  C25      1.0000 0.20066  0.47023  0.17412  Biso   1.000  C
  C26      1.0000 0.36101  0.50000  0.29117  Biso   1.000  C
  C27      1.0000 0.52962  0.20368  0.22935  Biso   1.000  C
  C28      1.0000 0.38192  0.50000  0.25619  Biso   1.000  C
  C29      1.0000 0.47023  0.17412  0.20066  Biso   1.000  C
  C30      1.0000 0.85836  0.50000  0.14164  Biso   1.000  C
  C31      1.0000 0.05216  0.50000  0.94784  Biso   1.000  C
  C32      1.0000 0.77065  0.79632  0.47038  Biso   1.000  C
  C33      1.0000 0.50000  0.22005  0.36141  Biso   1.000  C
  C34      1.0000 0.79934  0.17412  0.52977  Biso   1.000  C
  C35      1.0000 0.29117  0.50000  0.36101  Biso   1.000  C
  C36      1.0000 0.50000  0.29047  0.67954  Biso   1.000  C
  C37      1.0000 0.50000  0.25361  0.69929  Biso   1.000  C
  C38      1.0000 0.50000  0.36141  0.77995  Biso   1.000  C
  C39      1.0000 0.63899  0.29117  0.50000  Biso   1.000  C
  C40      1.0000 0.79934  0.82588  0.47023  Biso   1.000  C
  C41      1.0000 0.17273  0.50000  0.82727  Biso   1.000  C
  C42      1.0000 0.78139  0.50000  0.32121  Biso   1.000  C
  C43      1.0000 0.09793  0.09793  0.46456  Biso   1.000  C
  C44      1.0000 0.50000  0.82727  0.82727  Biso   1.000  C
  C45      1.0000 0.94784  0.05216  0.50000  Biso   1.000  C
  C46      1.0000 0.20368  0.22935  0.47038  Biso   1.000  C
  C47      1.0000 0.38192  0.25619  0.50000  Biso   1.000  C
  C48      1.0000 0.50000  0.25621  0.42561  Biso   1.000  C
  C49      1.0000 0.77065  0.52962  0.79632  Biso   1.000  C
  C50      1.0000 0.22935  0.52962  0.79632  Biso   1.000  C
  C51      1.0000 0.63899  0.70883  0.50000  Biso   1.000  C
  C52      1.0000 0.22935  0.20368  0.47038  Biso   1.000  C
  C53      1.0000 0.61808  0.74381  0.50000  Biso   1.000  C
  C54      1.0000 0.22005  0.63859  0.50000  Biso   1.000  C
  C55      1.0000 0.42561  0.74379  0.50000  Biso   1.000  C
  C56      1.0000 0.23042  0.50000  0.76958  Biso   1.000  C
  C57      1.0000 0.79632  0.22935  0.52962  Biso   1.000  C
  C58      1.0000 0.50000  0.70883  0.63899  Biso   1.000  C
  C59      1.0000 0.50000  0.74639  0.69929  Biso   1.000  C
  C60      1.0000 0.50000  0.36101  0.29117  Biso   1.000  C
  C61      1.0000 0.74379  0.42561  0.50000  Biso   1.000  C
  C62      1.0000 0.52977  0.17412  0.20066  Biso   1.000  C
  C63      1.0000 0.05216  0.94784  0.50000  Biso   1.000  C
  C64      1.0000 0.50000  0.08375  0.91625  Biso   1.000  C
  C65      1.0000 0.12709  0.53461  0.87291  Biso   1.000  C
  C66      1.0000 0.32046  0.50000  0.29047  Biso   1.000  C
  C67      1.0000 0.25619  0.38192  0.50000  Biso   1.000  C
  C68      1.0000 0.14164  0.85836  0.50000  Biso   1.000  C
  C69      1.0000 0.67954  0.70953  0.50000  Biso   1.000  C
  C70      1.0000 0.50000  0.25621  0.57439  Biso   1.000  C
  C71      1.0000 0.20368  0.47038  0.77065  Biso   1.000  C
  C72      1.0000 0.50000  0.32121  0.78139  Biso   1.000  C
  C73      1.0000 0.36141  0.77995  0.50000  Biso   1.000  C
  C74      1.0000 0.90207  0.46456  0.09793  Biso   1.000  C
  C75      1.0000 0.53544  0.90207  0.90207  Biso   1.000  C
  C76      1.0000 0.69929  0.74639  0.50000  Biso   1.000  C
  C77      1.0000 0.50000  0.74381  0.38192  Biso   1.000  C
  C78      1.0000 0.82727  0.17273  0.50000  Biso   1.000  C
  C79      1.0000 0.22935  0.20368  0.52962  Biso   1.000  C
  C80      1.0000 0.17412  0.47023  0.20066  Biso   1.000  C
  C81      1.0000 0.50000  0.21861  0.67879  Biso   1.000  C
  C82      1.0000 0.70883  0.36101  0.50000  Biso   1.000  C
  C83      1.0000 0.36141  0.50000  0.77995  Biso   1.000  C
  C84      1.0000 0.29117  0.50000  0.63899  Biso   1.000  C
  C85      1.0000 0.74639  0.69929  0.50000  Biso   1.000  C
  C86      1.0000 0.25361  0.50000  0.30071  Biso   1.000  C
  C87      1.0000 0.50000  0.36141  0.22005  Biso   1.000  C
  C88      1.0000 0.25619  0.61808  0.50000  Biso   1.000  C
  C89      1.0000 0.63859  0.77995  0.50000  Biso   1.000  C
  C90      1.0000 0.91625  0.50000  0.91625  Biso   1.000  C
  C91      1.0000 0.53544  0.09793  0.90207  Biso   1.000  C
  C92      1.0000 0.22935  0.52962  0.20368  Biso   1.000  C
  C93      1.0000 0.50000  0.57439  0.25621  Biso   1.000  C
  C94      1.0000 0.09793  0.46456  0.09793  Biso   1.000  C
  C95      1.0000 0.20066  0.17412  0.47023  Biso   1.000  C
  C96      1.0000 0.32121  0.21861  0.50000  Biso   1.000  C
  C97      1.0000 0.09793  0.90207  0.46456  Biso   1.000  C
  C98      1.0000 0.46456  0.09793  0.90207  Biso   1.000  C
  C99      1.0000 0.57439  0.50000  0.74379  Biso   1.000  C
  C100     1.0000 0.50000  0.23042  0.23042  Biso   1.000  C
  C101     1.0000 0.67879  0.21861  0.50000  Biso   1.000  C
  C102     1.0000 0.50000  0.82727  0.17273  Biso   1.000  C
  C103     1.0000 0.52962  0.79632  0.22935  Biso   1.000  C
  C104     1.0000 0.82588  0.20066  0.47023  Biso   1.000  C
  C105     1.0000 0.50000  0.94784  0.05216  Biso   1.000  C
  C106     1.0000 0.82727  0.82727  0.50000  Biso   1.000  C
  C107     1.0000 0.47038  0.77065  0.20368  Biso   1.000  C
  C108     1.0000 0.90207  0.53544  0.90207  Biso   1.000  C
  C109     1.0000 0.79632  0.47038  0.22935  Biso   1.000  C
  C110     1.0000 0.77065  0.20368  0.52962  Biso   1.000  C
  C111     1.0000 0.50000  0.67879  0.21861  Biso   1.000  C
  C112     1.0000 0.82588  0.79934  0.47023  Biso   1.000  C
  C113     1.0000 0.50000  0.70883  0.36101  Biso   1.000  C
  C114     1.0000 0.17412  0.52977  0.20066  Biso   1.000  C
  C115     1.0000 0.50000  0.67879  0.78139  Biso   1.000  C
  C116     1.0000 0.09793  0.09793  0.53544  Biso   1.000  C
  C117     1.0000 0.77065  0.52962  0.20368  Biso   1.000  C
  C118     1.0000 0.46539  0.87291  0.12709  Biso   1.000  C
  C119     1.0000 0.50000  0.30071  0.25361  Biso   1.000  C
  C120     1.0000 0.47023  0.20066  0.82588  Biso   1.000  C
  C121     1.0000 0.74379  0.57439  0.50000  Biso   1.000  C
  C122     1.0000 0.87291  0.46539  0.12709  Biso   1.000  C
  C123     1.0000 0.82588  0.52977  0.79934  Biso   1.000  C
  C124     1.0000 0.79632  0.77065  0.47038  Biso   1.000  C
  C125     1.0000 0.77065  0.47038  0.20368  Biso   1.000  C
  C126     1.0000 0.52977  0.20066  0.82588  Biso   1.000  C
  C127     1.0000 0.77065  0.20368  0.47038  Biso   1.000  C
  C128     1.0000 0.50000  0.63899  0.70883  Biso   1.000  C
  C129     1.0000 0.20368  0.52962  0.22935  Biso   1.000  C
  C130     1.0000 0.94784  0.50000  0.05216  Biso   1.000  C
  C131     1.0000 0.32121  0.50000  0.21861  Biso   1.000  C
  C132     1.0000 0.32121  0.78139  0.50000  Biso   1.000  C
  C133     1.0000 0.50000  0.38192  0.74381  Biso   1.000  C
  C134     1.0000 0.87291  0.87291  0.46539  Biso   1.000  C
  C135     1.0000 0.36101  0.70883  0.50000  Biso   1.000  C
  C136     1.0000 0.67954  0.29047  0.50000  Biso   1.000  C
  C137     1.0000 0.90207  0.90207  0.53544  Biso   1.000  C
  C138     1.0000 0.50000  0.63859  0.77995  Biso   1.000  C
  C139     1.0000 0.50000  0.70953  0.67954  Biso   1.000  C
  C140     1.0000 0.47023  0.17412  0.79934  Biso   1.000  C
  C141     1.0000 0.50000  0.67954  0.70953  Biso   1.000  C
  C142     1.0000 0.50000  0.67954  0.29047  Biso   1.000  C
  C143     1.0000 0.79632  0.77065  0.52962  Biso   1.000  C
  C144     1.0000 0.82588  0.52977  0.20066  Biso   1.000  C
  C145     1.0000 0.79934  0.52977  0.17412  Biso   1.000  C
  C146     1.0000 0.25361  0.50000  0.69929  Biso   1.000  C
  C147     1.0000 0.50000  0.57439  0.74379  Biso   1.000  C
  C148     1.0000 0.29117  0.36101  0.50000  Biso   1.000  C
  C149     1.0000 0.61808  0.50000  0.25619  Biso   1.000  C
  C150     1.0000 0.12709  0.12709  0.46539  Biso   1.000  C
  C151     1.0000 0.53544  0.90207  0.09793  Biso   1.000  C
  C152     1.0000 0.47038  0.79632  0.77065  Biso   1.000  C
  C153     1.0000 0.50000  0.78139  0.67879  Biso   1.000  C
  C154     1.0000 0.50000  0.85836  0.14164  Biso   1.000  C
  C155     1.0000 0.25621  0.42561  0.50000  Biso   1.000  C
  C156     1.0000 0.23042  0.50000  0.23042  Biso   1.000  C
  C157     1.0000 0.20066  0.82588  0.47023  Biso   1.000  C
  C158     1.0000 0.53461  0.12709  0.87291  Biso   1.000  C
  C159     1.0000 0.17412  0.52977  0.79934  Biso   1.000  C
  C160     1.0000 0.36101  0.50000  0.70883  Biso   1.000  C
  C161     1.0000 0.69929  0.25361  0.50000  Biso   1.000  C
  C162     1.0000 0.50000  0.91625  0.08375  Biso   1.000  C
  C163     1.0000 0.42561  0.25621  0.50000  Biso   1.000  C
  C164     1.0000 0.47023  0.79934  0.82588  Biso   1.000  C
  C165     1.0000 0.79632  0.52962  0.22935  Biso   1.000  C
  C166     1.0000 0.20368  0.77065  0.47038  Biso   1.000  C
  C167     1.0000 0.47038  0.20368  0.22935  Biso   1.000  C
  C168     1.0000 0.20066  0.47023  0.82588  Biso   1.000  C
  C169     1.0000 0.87291  0.53461  0.87291  Biso   1.000  C
  C170     1.0000 0.79934  0.47023  0.17412  Biso   1.000  C
  C171     1.0000 0.91625  0.08375  0.50000  Biso   1.000  C
  C172     1.0000 0.67954  0.50000  0.70953  Biso   1.000  C
  C173     1.0000 0.47023  0.82588  0.20066  Biso   1.000  C
  C174     1.0000 0.50000  0.29047  0.32046  Biso   1.000  C
  C175     1.0000 0.50000  0.74381  0.61808  Biso   1.000  C
  C176     1.0000 0.42561  0.50000  0.25621  Biso   1.000  C
  C177     1.0000 0.47038  0.20368  0.77065  Biso   1.000  C
  C178     1.0000 0.12709  0.87291  0.53461  Biso   1.000  C
  C179     1.0000 0.12709  0.46539  0.87291  Biso   1.000  C
  C180     1.0000 0.50000  0.25619  0.61808  Biso   1.000  C
  C181     1.0000 0.20368  0.52962  0.77065  Biso   1.000  C
  C182     1.0000 0.32046  0.50000  0.70953  Biso   1.000  C
  C183     1.0000 0.77995  0.63859  0.50000  Biso   1.000  C
  C184     1.0000 0.29117  0.63899  0.50000  Biso   1.000  C
  C185     1.0000 0.70883  0.50000  0.63899  Biso   1.000  C
  C186     1.0000 0.22935  0.79632  0.47038  Biso   1.000  C
  C187     1.0000 0.08375  0.50000  0.08375  Biso   1.000  C
  C188     1.0000 0.50000  0.36101  0.70883  Biso   1.000  C
  C189     1.0000 0.25621  0.57439  0.50000  Biso   1.000  C
  C190     1.0000 0.21861  0.67879  0.50000  Biso   1.000  C
  C191     1.0000 0.52977  0.20066  0.17412  Biso   1.000  C
  C192     1.0000 0.67879  0.50000  0.21861  Biso   1.000  C
  C193     1.0000 0.50000  0.14164  0.85836  Biso   1.000  C
  C194     1.0000 0.91625  0.50000  0.08375  Biso   1.000  C
  C195     1.0000 0.17412  0.20066  0.52977  Biso   1.000  C
  C196     1.0000 0.67954  0.50000  0.29047  Biso   1.000  C
  C197     1.0000 0.50000  0.42561  0.25621  Biso   1.000  C
  C198     1.0000 0.53461  0.87291  0.12709  Biso   1.000  C
  C199     1.0000 0.74381  0.38192  0.50000  Biso   1.000  C
  C200     1.0000 0.21861  0.50000  0.67879  Biso   1.000  C
  C201     1.0000 0.67879  0.50000  0.78139  Biso   1.000  C
  C202     1.0000 0.50000  0.29117  0.63899  Biso   1.000  C
  C203     1.0000 0.50000  0.69929  0.74639  Biso   1.000  C
  C204     1.0000 0.52962  0.77065  0.79632  Biso   1.000  C
  C205     1.0000 0.50000  0.74379  0.57439  Biso   1.000  C
  C206     1.0000 0.74381  0.50000  0.38192  Biso   1.000  C
  C207     1.0000 0.52962  0.20368  0.77065  Biso   1.000  C
  C208     1.0000 0.50000  0.76958  0.23042  Biso   1.000  C
  C209     1.0000 0.36141  0.22005  0.50000  Biso   1.000  C
  C210     1.0000 0.46539  0.12709  0.87291  Biso   1.000  C
  C211     1.0000 0.50000  0.23042  0.76958  Biso   1.000  C
  C212     1.0000 0.77995  0.50000  0.36141  Biso   1.000  C
  C213     1.0000 0.50000  0.14164  0.14164  Biso   1.000  C
  C214     1.0000 0.05216  0.50000  0.05216  Biso   1.000  C
  C215     1.0000 0.21861  0.50000  0.32121  Biso   1.000  C
  C216     1.0000 0.63899  0.50000  0.70883  Biso   1.000  C
  C217     1.0000 0.50000  0.61808  0.74381  Biso   1.000  C
  C218     1.0000 0.52977  0.17412  0.79934  Biso   1.000  C
  C219     1.0000 0.29047  0.50000  0.67954  Biso   1.000  C
  C220     1.0000 0.50000  0.08375  0.08375  Biso   1.000  C
  C221     1.0000 0.57439  0.50000  0.25621  Biso   1.000  C
  C222     1.0000 0.52962  0.22935  0.20368  Biso   1.000  C
  C223     1.0000 0.90207  0.90207  0.46456  Biso   1.000  C
  C224     1.0000 0.82727  0.50000  0.17273  Biso   1.000  C
  C225     1.0000 0.09793  0.90207  0.53544  Biso   1.000  C
  C226     1.0000 0.82588  0.20066  0.52977  Biso   1.000  C
  C227     1.0000 0.79934  0.47023  0.82588  Biso   1.000  C
  C228     1.0000 0.47038  0.22935  0.20368  Biso   1.000  C
  C229     1.0000 0.17412  0.20066  0.47023  Biso   1.000  C
  C230     1.0000 0.57439  0.25621  0.50000  Biso   1.000  C
  C231     1.0000 0.79934  0.52977  0.82588  Biso   1.000  C
  C232     1.0000 0.47023  0.82588  0.79934  Biso   1.000  C
  C233     1.0000 0.50000  0.94784  0.94784  Biso   1.000  C
  C234     1.0000 0.38192  0.74381  0.50000  Biso   1.000  C
  C235     1.0000 0.50000  0.91625  0.91625  Biso   1.000  C
  C236     1.0000 0.50000  0.30071  0.74639  Biso   1.000  C
  C237     1.0000 0.63859  0.22005  0.50000  Biso   1.000  C
  C238     1.0000 0.82588  0.47023  0.79934  Biso   1.000  C
  C239     1.0000 0.70953  0.32046  0.50000  Biso   1.000  C
  C240     1.0000 0.42561  0.50000  0.74379  Biso   1.000  C
  C241     1.0000 0.76958  0.23042  0.50000  Biso   1.000  C
  C242     1.0000 0.50000  0.42561  0.74379  Biso   1.000  C
  C243     1.0000 0.50000  0.74379  0.42561  Biso   1.000  C
  C244     1.0000 0.74379  0.50000  0.57439  Biso   1.000  C
  C245     1.0000 0.47038  0.79632  0.22935  Biso   1.000  C
  C246     1.0000 0.46539  0.12709  0.12709  Biso   1.000  C
  C247     1.0000 0.53461  0.87291  0.87291  Biso   1.000  C
  C248     1.0000 0.77995  0.50000  0.63859  Biso   1.000  C
  C249     1.0000 0.50000  0.63899  0.29117  Biso   1.000  C
  C250     1.0000 0.50000  0.25619  0.38192  Biso   1.000  C
  C251     1.0000 0.50000  0.78139  0.32121  Biso   1.000  C
  C252     1.0000 0.70883  0.50000  0.36101  Biso   1.000  C
  C253     1.0000 0.08375  0.91625  0.50000  Biso   1.000  C
  C254     1.0000 0.50000  0.17273  0.17273  Biso   1.000  C
  C255     1.0000 0.74379  0.50000  0.42561  Biso   1.000  C
  C256     1.0000 0.76958  0.76958  0.50000  Biso   1.000  C
  C257     1.0000 0.91625  0.91625  0.50000  Biso   1.000  C
  C258     1.0000 0.30071  0.50000  0.74639  Biso   1.000  C
  C259     1.0000 0.08375  0.50000  0.91625  Biso   1.000  C
  C260     1.0000 0.20066  0.52977  0.82588  Biso   1.000  C
  C261     1.0000 0.22935  0.47038  0.20368  Biso   1.000  C
  C262     1.0000 0.70953  0.50000  0.67954  Biso   1.000  C
  C263     1.0000 0.47023  0.20066  0.17412  Biso   1.000  C
  C264     1.0000 0.38192  0.50000  0.74381  Biso   1.000  C
  C265     1.0000 0.29047  0.67954  0.50000  Biso   1.000  C
  C266     1.0000 0.50000  0.85836  0.85836  Biso   1.000  C
  C267     1.0000 0.46456  0.09793  0.09793  Biso   1.000  C
  C268     1.0000 0.52977  0.82588  0.79934  Biso   1.000  C
  C269     1.0000 0.46456  0.90207  0.90207  Biso   1.000  C
  C270     1.0000 0.74639  0.50000  0.69929  Biso   1.000  C
  C271     1.0000 0.87291  0.46539  0.87291  Biso   1.000  C
  C272     1.0000 0.90207  0.09793  0.53544  Biso   1.000  C
  C273     1.0000 0.20066  0.82588  0.52977  Biso   1.000  C
  C274     1.0000 0.50000  0.38192  0.25619  Biso   1.000  C
  C275     1.0000 0.20368  0.47038  0.22935  Biso   1.000  C
  C276     1.0000 0.46456  0.90207  0.09793  Biso   1.000  C
  C277     1.0000 0.61808  0.25619  0.50000  Biso   1.000  C
  C278     1.0000 0.46539  0.87291  0.87291  Biso   1.000  C
  C279     1.0000 0.63899  0.50000  0.29117  Biso   1.000  C
  C280     1.0000 0.85836  0.14164  0.50000  Biso   1.000  C
  C281     1.0000 0.22005  0.50000  0.63859  Biso   1.000  C
  C282     1.0000 0.82727  0.50000  0.82727  Biso   1.000  C
  C283     1.0000 0.85836  0.85836  0.50000  Biso   1.000  C
  C284     1.0000 0.50000  0.32121  0.21861  Biso   1.000  C
  C285     1.0000 0.36141  0.50000  0.22005  Biso   1.000  C
  C286     1.0000 0.78139  0.67879  0.50000  Biso   1.000  C
  C287     1.0000 0.90207  0.53544  0.09793  Biso   1.000  C
  C288     1.0000 0.50000  0.05216  0.94784  Biso   1.000  C
  C289     1.0000 0.50000  0.76958  0.76958  Biso   1.000  C
  C290     1.0000 0.63859  0.50000  0.77995  Biso   1.000  C
  C291     1.0000 0.50000  0.70953  0.32046  Biso   1.000  C
  C292     1.0000 0.90207  0.09793  0.46456  Biso   1.000  C
  C293     1.0000 0.36101  0.29117  0.50000  Biso   1.000  C
  C294     1.0000 0.53461  0.12709  0.12709  Biso   1.000  C
  C295     1.0000 0.25361  0.30071  0.50000  Biso   1.000  C
  C296     1.0000 0.53544  0.09793  0.09793  Biso   1.000  C
  C297     1.0000 0.30071  0.74639  0.50000  Biso   1.000  C
  C298     1.0000 0.17412  0.47023  0.79934  Biso   1.000  C
  C299     1.0000 0.25619  0.50000  0.61808  Biso   1.000  C
  C300     1.0000 0.20368  0.22935  0.52962  Biso   1.000  C
  C301     1.0000 0.79934  0.17412  0.47023  Biso   1.000  C
  C302     1.0000 0.09793  0.53544  0.90207  Biso   1.000  C
  C303     1.0000 0.76958  0.50000  0.23042  Biso   1.000  C
  C304     1.0000 0.17273  0.50000  0.17273  Biso   1.000  C
  C305     1.0000 0.87291  0.12709  0.46539  Biso   1.000  C
  C306     1.0000 0.32046  0.70953  0.50000  Biso   1.000  C
  C307     1.0000 0.82588  0.79934  0.52977  Biso   1.000  C
  C308     1.0000 0.22935  0.79632  0.52962  Biso   1.000  C
  C309     1.0000 0.22935  0.47038  0.79632  Biso   1.000  C
  C310     1.0000 0.50000  0.32046  0.29047  Biso   1.000  C
  C311     1.0000 0.77065  0.79632  0.52962  Biso   1.000  C
  C312     1.0000 0.50000  0.74639  0.30071  Biso   1.000  C
  C313     1.0000 0.79632  0.22935  0.47038  Biso   1.000  C
  C314     1.0000 0.70883  0.63899  0.50000  Biso   1.000  C
  C315     1.0000 0.50000  0.32046  0.70953  Biso   1.000  C
  C316     1.0000 0.32046  0.29047  0.50000  Biso   1.000  C
  C317     1.0000 0.47038  0.22935  0.79632  Biso   1.000  C
  C318     1.0000 0.63859  0.50000  0.22005  Biso   1.000  C
  C319     1.0000 0.87291  0.12709  0.53461  Biso   1.000  C
  C320     1.0000 0.17273  0.17273  0.50000  Biso   1.000  C
  C321     1.0000 0.20368  0.77065  0.52962  Biso   1.000  C
  C322     1.0000 0.79632  0.52962  0.77065  Biso   1.000  C
  C323     1.0000 0.29047  0.32046  0.50000  Biso   1.000  C
  C324     1.0000 0.74381  0.50000  0.61808  Biso   1.000  C
  C325     1.0000 0.12709  0.12709  0.53461  Biso   1.000  C
  C326     1.0000 0.90207  0.46456  0.90207  Biso   1.000  C
  C327     1.0000 0.32121  0.50000  0.78139  Biso   1.000  C
  C328     1.0000 0.17412  0.79934  0.52977  Biso   1.000  C
  C329     1.0000 0.57439  0.74379  0.50000  Biso   1.000  C
  C330     1.0000 0.79632  0.47038  0.77065  Biso   1.000  C
  C331     1.0000 0.50000  0.77995  0.36141  Biso   1.000  C
  C332     1.0000 0.52977  0.79934  0.17412  Biso   1.000  C
  C333     1.0000 0.70953  0.50000  0.32046  Biso   1.000  C
  C334     1.0000 0.50000  0.69929  0.25361  Biso   1.000  C
  C335     1.0000 0.12709  0.87291  0.46539  Biso   1.000  C
  C336     1.0000 0.09793  0.46456  0.90207  Biso   1.000  C
  C337     1.0000 0.85836  0.50000  0.85836  Biso   1.000  C
  C338     1.0000 0.09793  0.53544  0.09793  Biso   1.000  C
  C339     1.0000 0.50000  0.21861  0.32121  Biso   1.000  C
  C340     1.0000 0.29047  0.50000  0.32046  Biso   1.000  C
  C341     1.0000 0.50000  0.61808  0.25619  Biso   1.000  C
  C342     1.0000 0.08375  0.08375  0.50000  Biso   1.000  C
  C343     1.0000 0.69929  0.50000  0.25361  Biso   1.000  C
  C344     1.0000 0.74639  0.50000  0.30071  Biso   1.000  C
  C345     1.0000 0.14164  0.50000  0.14164  Biso   1.000  C
  C346     1.0000 0.50000  0.17273  0.82727  Biso   1.000  C
  C347     1.0000 0.14164  0.50000  0.85836  Biso   1.000  C
  C348     1.0000 0.30071  0.50000  0.25361  Biso   1.000  C
  C349     1.0000 0.12709  0.46539  0.12709  Biso   1.000  C
  C350     1.0000 0.50000  0.77995  0.63859  Biso   1.000  C
  C351     1.0000 0.87291  0.87291  0.53461  Biso   1.000  C
  C352     1.0000 0.22005  0.36141  0.50000  Biso   1.000  C
  C353     1.0000 0.69929  0.50000  0.74639  Biso   1.000  C
  C354     1.0000 0.21861  0.32121  0.50000  Biso   1.000  C
  C355     1.0000 0.94784  0.50000  0.94784  Biso   1.000  C
  C356     1.0000 0.77995  0.36141  0.50000  Biso   1.000  C
  C357     1.0000 0.25361  0.69929  0.50000  Biso   1.000  C
  C358     1.0000 0.82588  0.47023  0.20066  Biso   1.000  C
  C359     1.0000 0.20066  0.52977  0.17412  Biso   1.000  C
  C360     1.0000 0.25619  0.50000  0.38192  Biso   1.000  C
  C361     1.0000 0.30071  0.25361  0.50000  Biso   1.000  C
  C362     1.0000 0.05216  0.05216  0.50000  Biso   1.000  C
  C363     1.0000 0.79934  0.82588  0.52977  Biso   1.000  C
  C364     1.0000 0.74639  0.30071  0.50000  Biso   1.000  C
  C365     1.0000 0.70953  0.67954  0.50000  Biso   1.000  C
  C366     1.0000 0.50000  0.25361  0.30071  Biso   1.000  C
  C367     1.0000 0.25621  0.50000  0.42561  Biso   1.000  C
  C368     1.0000 0.52962  0.79632  0.77065  Biso   1.000  C
  C369     1.0000 0.47038  0.77065  0.79632  Biso   1.000  C
  C370     1.0000 0.50000  0.63859  0.22005  Biso   1.000  C
  C371     1.0000 0.14164  0.14164  0.50000  Biso   1.000  C
  C372     1.0000 0.61808  0.50000  0.74381  Biso   1.000  C
  N1       1.0000 0.73948  0.50000  0.26052  Biso   1.000  N
  N2       1.0000 0.50000  0.26052  0.26052  Biso   1.000  N
  N3       1.0000 0.26052  0.50000  0.26052  Biso   1.000  N
  N4       1.0000 0.73948  0.73948  0.50000  Biso   1.000  N
  N5       1.0000 0.26052  0.26052  0.50000  Biso   1.000  N
  N6       1.0000 0.50000  0.73948  0.26052  Biso   1.000  N
  N7       1.0000 0.26052  0.50000  0.73948  Biso   1.000  N
  N8       1.0000 0.26052  0.73948  0.50000  Biso   1.000  N
  N9       1.0000 0.50000  0.26052  0.73948  Biso   1.000  N
  N10      1.0000 0.73948  0.50000  0.73948  Biso   1.000  N
  N11      1.0000 0.50000  0.73948  0.73948  Biso   1.000  N
  N12      1.0000 0.73948  0.26052  0.50000  Biso   1.000  N
  O1       1.0000 0.44266  0.77665  0.50000  Biso   1.000  O
  O2       1.0000 0.50000  0.28931  0.44260  Biso   1.000  O
  O3       1.0000 0.53355  0.95935  0.04065  Biso   1.000  O
  O4       1.0000 0.71069  0.44260  0.50000  Biso   1.000  O
  O5       1.0000 0.46645  0.04065  0.04065  Biso   1.000  O
  O6       1.0000 0.46645  0.95935  0.04065  Biso   1.000  O
  O7       1.0000 0.46645  0.04065  0.95935  Biso   1.000  O
  O8       1.0000 0.95935  0.46645  0.95935  Biso   1.000  O
  O9       1.0000 0.55734  0.22335  0.50000  Biso   1.000  O
  O10      1.0000 0.55740  0.71069  0.50000  Biso   1.000  O
  O11      1.0000 0.95935  0.95935  0.53355  Biso   1.000  O
  O12      1.0000 0.04065  0.95935  0.53355  Biso   1.000  O
  O13      1.0000 0.55734  0.50000  0.22335  Biso   1.000  O
  O14      1.0000 0.53355  0.04065  0.04065  Biso   1.000  O
  O15      1.0000 0.04065  0.53355  0.04065  Biso   1.000  O
  O16      1.0000 0.71069  0.50000  0.44260  Biso   1.000  O
  O17      1.0000 0.95935  0.04065  0.53355  Biso   1.000  O
  O18      1.0000 0.22335  0.50000  0.55734  Biso   1.000  O
  O19      1.0000 0.28931  0.44260  0.50000  Biso   1.000  O
  O20      1.0000 0.77665  0.50000  0.44266  Biso   1.000  O
  O21      1.0000 0.50000  0.55734  0.22335  Biso   1.000  O
  O22      1.0000 0.22335  0.50000  0.44266  Biso   1.000  O
  O23      1.0000 0.50000  0.71069  0.55740  Biso   1.000  O
  O24      1.0000 0.44266  0.22335  0.50000  Biso   1.000  O
  O25      1.0000 0.55740  0.28931  0.50000  Biso   1.000  O
  O26      1.0000 0.04065  0.46645  0.04065  Biso   1.000  O
  O27      1.0000 0.28931  0.50000  0.44260  Biso   1.000  O
  O28      1.0000 0.50000  0.55740  0.71069  Biso   1.000  O
  O29      1.0000 0.44266  0.50000  0.77665  Biso   1.000  O
  O30      1.0000 0.95935  0.53355  0.95935  Biso   1.000  O
  O31      1.0000 0.44260  0.71069  0.50000  Biso   1.000  O
  O32      1.0000 0.95935  0.04065  0.46645  Biso   1.000  O
  O33      1.0000 0.28931  0.55740  0.50000  Biso   1.000  O
  O34      1.0000 0.55734  0.77665  0.50000  Biso   1.000  O
  O35      1.0000 0.95935  0.46645  0.04065  Biso   1.000  O
  O36      1.0000 0.77665  0.50000  0.55734  Biso   1.000  O
  O37      1.0000 0.04065  0.95935  0.46645  Biso   1.000  O
  O38      1.0000 0.50000  0.44266  0.77665  Biso   1.000  O
  O39      1.0000 0.71069  0.55740  0.50000  Biso   1.000  O
  O40      1.0000 0.04065  0.04065  0.53355  Biso   1.000  O
  O41      1.0000 0.53355  0.95935  0.95935  Biso   1.000  O
  O42      1.0000 0.50000  0.77665  0.44266  Biso   1.000  O
  O43      1.0000 0.50000  0.44260  0.28931  Biso   1.000  O
  O44      1.0000 0.46645  0.95935  0.95935  Biso   1.000  O
  O45      1.0000 0.55734  0.50000  0.77665  Biso   1.000  O
  O46      1.0000 0.50000  0.28931  0.55740  Biso   1.000  O
  O47      1.0000 0.50000  0.77665  0.55734  Biso   1.000  O
  O48      1.0000 0.44260  0.50000  0.71069  Biso   1.000  O
  O49      1.0000 0.04065  0.04065  0.46645  Biso   1.000  O
  O50      1.0000 0.50000  0.55740  0.28931  Biso   1.000  O
  O51      1.0000 0.22335  0.55734  0.50000  Biso   1.000  O
  O52      1.0000 0.50000  0.44260  0.71069  Biso   1.000  O
  O53      1.0000 0.28931  0.50000  0.55740  Biso   1.000  O
  O54      1.0000 0.77665  0.55734  0.50000  Biso   1.000  O
  O55      1.0000 0.95935  0.53355  0.04065  Biso   1.000  O
  O56      1.0000 0.50000  0.55734  0.77665  Biso   1.000  O
  O57      1.0000 0.55740  0.50000  0.71069  Biso   1.000  O
  O58      1.0000 0.04065  0.46645  0.95935  Biso   1.000  O
  O59      1.0000 0.50000  0.71069  0.44260  Biso   1.000  O
  O60      1.0000 0.44266  0.50000  0.22335  Biso   1.000  O
  O61      1.0000 0.71069  0.50000  0.55740  Biso   1.000  O
  O62      1.0000 0.44260  0.28931  0.50000  Biso   1.000  O
  O63      1.0000 0.53355  0.04065  0.95935  Biso   1.000  O
  O64      1.0000 0.95935  0.95935  0.46645  Biso   1.000  O
  O65      1.0000 0.44260  0.50000  0.28931  Biso   1.000  O
  O66      1.0000 0.50000  0.22335  0.55734  Biso   1.000  O
  O67      1.0000 0.55740  0.50000  0.28931  Biso   1.000  O
  O68      1.0000 0.04065  0.53355  0.95935  Biso   1.000  O
  O69      1.0000 0.77665  0.44266  0.50000  Biso   1.000  O
  O70      1.0000 0.50000  0.44266  0.22335  Biso   1.000  O
  O71      1.0000 0.50000  0.22335  0.44266  Biso   1.000  O
  O72      1.0000 0.22335  0.44266  0.50000  Biso   1.000  O
  Cu19     1.0000 0.97145  0.44157  0.44157  Biso   1.000  Cu
  Cu20     1.0000 0.93255  0.22375  0.94157  Biso   1.000  Cu
  Cu21     1.0000 0.93255  0.94157  0.65939  Biso   1.000  Cu
  Cu22     1.0000 0.93255  0.73659  0.94157  Biso   1.000  Cu
  Cu23     1.0000 0.93255  0.94157  0.22375  Biso   1.000  Cu
  Cu24     1.0000 0.93255  0.65939  0.94157  Biso   1.000  Cu
  Cu25     1.0000 0.43255  0.90267  0.44157  Biso   1.000  Cu
  Cu26     1.0000 0.93255  0.94157  0.73659  Biso   1.000  Cu
  Cu27     1.0000 0.72757  0.94157  0.94157  Biso   1.000  Cu
  Cu28     1.0000 0.93255  0.94157  0.14655  Biso   1.000  Cu
  Cu29     1.0000 0.21473  0.94157  0.94157  Biso   1.000  Cu
  Cu30     1.0000 0.89365  0.44157  0.44157  Biso   1.000  Cu
  Cu31     1.0000 0.43255  0.98047  0.44157  Biso   1.000  Cu
  Cu32     1.0000 0.43255  0.44157  0.98047  Biso   1.000  Cu
  Cu33     1.0000 0.93255  0.14655  0.94157  Biso   1.000  Cu
  Cu34     1.0000 0.65037  0.94157  0.94157  Biso   1.000  Cu
  Cu35     1.0000 0.13753  0.94157  0.94157  Biso   1.000  Cu
  Cu36     1.0000 0.43255  0.44157  0.90267  Biso   1.000  Cu
  H217     1.0000 0.93255  0.13357  0.63617  Biso   1.000  H
  H218     1.0000 0.93255  0.74957  0.24697  Biso   1.000  H
  H219     1.0000 0.74055  0.94157  0.24697  Biso   1.000  H
  H220     1.0000 0.88275  0.24127  0.28617  Biso   1.000  H
  H221     1.0000 0.34415  0.52997  0.00077  Biso   1.000  H
  H222     1.0000 0.27715  0.24127  0.99137  Biso   1.000  H
  H223     1.0000 0.18485  0.99147  0.23657  Biso   1.000  H
  H224     1.0000 0.52095  0.00077  0.52997  Biso   1.000  H
  H225     1.0000 0.80815  0.24497  0.94157  Biso   1.000  H
  H226     1.0000 0.22755  0.68927  0.89167  Biso   1.000  H
  H227     1.0000 0.88275  0.24127  0.59697  Biso   1.000  H
  H228     1.0000 0.88265  0.64657  0.19387  Biso   1.000  H
  H229     1.0000 0.99175  0.35317  0.52997  Biso   1.000  H
  H230     1.0000 0.05825  0.94157  0.75667  Biso   1.000  H
  H231     1.0000 0.68025  0.99147  0.64657  Biso   1.000  H
  H232     1.0000 0.80815  0.94157  0.63817  Biso   1.000  H
  H233     1.0000 0.88265  0.68927  0.64657  Biso   1.000  H
  H234     1.0000 0.58795  0.99137  0.64187  Biso   1.000  H
  H235     1.0000 0.05695  0.94157  0.24497  Biso   1.000  H
  H236     1.0000 0.12455  0.63617  0.94157  Biso   1.000  H
  H237     1.0000 0.99085  0.30477  0.57837  Biso   1.000  H
  H238     1.0000 0.68025  0.23657  0.89167  Biso   1.000  H
  H239     1.0000 0.18485  0.99147  0.64657  Biso   1.000  H
  H240     1.0000 0.74765  0.94157  0.81587  Biso   1.000  H
  H241     1.0000 0.62915  0.81717  0.94157  Biso   1.000  H
  H242     1.0000 0.18485  0.64657  0.99147  Biso   1.000  H
  H243     1.0000 0.27715  0.89177  0.64187  Biso   1.000  H
  H244     1.0000 0.98235  0.24127  0.28617  Biso   1.000  H
  H245     1.0000 0.34415  0.88237  0.52997  Biso   1.000  H
  H246     1.0000 0.93255  0.13357  0.24697  Biso   1.000  H
  H247     1.0000 0.23595  0.81717  0.94157  Biso   1.000  H
  H248     1.0000 0.93255  0.12647  0.81587  Biso   1.000  H
  H249     1.0000 0.93255  0.24497  0.81717  Biso   1.000  H
  H250     1.0000 0.34415  0.35317  0.00077  Biso   1.000  H
  H251     1.0000 0.80815  0.63817  0.94157  Biso   1.000  H
  H252     1.0000 0.05695  0.24497  0.94157  Biso   1.000  H
  H253     1.0000 0.52095  0.00077  0.35317  Biso   1.000  H
  H254     1.0000 0.29575  0.99987  0.30477  Biso   1.000  H
  H255     1.0000 0.29575  0.57837  0.88327  Biso   1.000  H
  H256     1.0000 0.88275  0.64187  0.59697  Biso   1.000  H
  H257     1.0000 0.63285  0.89177  0.28617  Biso   1.000  H
  H258     1.0000 0.68025  0.23657  0.99147  Biso   1.000  H
  H259     1.0000 0.52095  0.35317  0.88237  Biso   1.000  H
  H260     1.0000 0.34415  0.35317  0.88237  Biso   1.000  H
  H261     1.0000 0.63755  0.19387  0.99147  Biso   1.000  H
  H262     1.0000 0.74055  0.63617  0.94157  Biso   1.000  H
  H263     1.0000 0.63285  0.28617  0.89177  Biso   1.000  H
  H264     1.0000 0.27715  0.99137  0.24127  Biso   1.000  H
  H265     1.0000 0.05825  0.94157  0.12647  Biso   1.000  H
  H266     1.0000 0.05825  0.12647  0.94157  Biso   1.000  H
  H267     1.0000 0.22755  0.89167  0.19387  Biso   1.000  H
  H268     1.0000 0.98235  0.64187  0.28617  Biso   1.000  H
  H269     1.0000 0.68025  0.89167  0.64657  Biso   1.000  H
  H270     1.0000 0.98235  0.28617  0.24127  Biso   1.000  H
  H271     1.0000 0.88275  0.59697  0.64187  Biso   1.000  H
  H272     1.0000 0.93255  0.81717  0.24497  Biso   1.000  H
  H273     1.0000 0.87335  0.52997  0.52997  Biso   1.000  H
  H274     1.0000 0.56935  0.88327  0.30477  Biso   1.000  H
  H275     1.0000 0.88265  0.19387  0.23657  Biso   1.000  H
  H276     1.0000 0.63285  0.99137  0.28617  Biso   1.000  H
  H277     1.0000 0.98245  0.64657  0.68927  Biso   1.000  H
  H278     1.0000 0.11745  0.06727  0.94157  Biso   1.000  H
  H279     1.0000 0.62715  0.94157  0.13357  Biso   1.000  H
  H280     1.0000 0.18485  0.64657  0.89167  Biso   1.000  H
  H281     1.0000 0.11745  0.94157  0.81587  Biso   1.000  H
  H282     1.0000 0.23225  0.89177  0.28617  Biso   1.000  H
  H283     1.0000 0.98235  0.64187  0.59697  Biso   1.000  H
  H284     1.0000 0.88265  0.64657  0.68927  Biso   1.000  H
  H285     1.0000 0.58795  0.89177  0.24127  Biso   1.000  H
  H286     1.0000 0.98245  0.64657  0.19387  Biso   1.000  H
  H287     1.0000 0.68025  0.99147  0.23657  Biso   1.000  H
  H288     1.0000 0.99085  0.57837  0.57837  Biso   1.000  H
  H289     1.0000 0.12455  0.94157  0.63617  Biso   1.000  H
  H290     1.0000 0.29575  0.57837  0.99987  Biso   1.000  H
  H291     1.0000 0.18485  0.23657  0.99147  Biso   1.000  H
  H292     1.0000 0.63755  0.19387  0.89167  Biso   1.000  H
  H293     1.0000 0.23795  0.94157  0.74957  Biso   1.000  H
  H294     1.0000 0.63285  0.59697  0.99137  Biso   1.000  H
  H295     1.0000 0.23595  0.94157  0.81717  Biso   1.000  H
  H296     1.0000 0.34415  0.00077  0.52997  Biso   1.000  H
  H297     1.0000 0.62715  0.74957  0.94157  Biso   1.000  H
  H298     1.0000 0.88265  0.23657  0.68927  Biso   1.000  H
  H299     1.0000 0.93255  0.06727  0.12647  Biso   1.000  H
  H300     1.0000 0.29575  0.88327  0.30477  Biso   1.000  H
  H301     1.0000 0.22755  0.19387  0.99147  Biso   1.000  H
  H302     1.0000 0.23225  0.59697  0.89177  Biso   1.000  H
  H303     1.0000 0.11745  0.94157  0.06727  Biso   1.000  H
  H304     1.0000 0.88275  0.28617  0.64187  Biso   1.000  H
  H305     1.0000 0.80685  0.12647  0.94157  Biso   1.000  H
  H306     1.0000 0.87335  0.52997  0.35317  Biso   1.000  H
  H307     1.0000 0.98235  0.28617  0.64187  Biso   1.000  H
  H308     1.0000 0.99085  0.57837  0.30477  Biso   1.000  H
  H309     1.0000 0.68025  0.89167  0.23657  Biso   1.000  H
  H310     1.0000 0.63755  0.99147  0.19387  Biso   1.000  H
  H311     1.0000 0.05695  0.63817  0.94157  Biso   1.000  H
  H312     1.0000 0.23595  0.94157  0.06597  Biso   1.000  H
  H313     1.0000 0.98245  0.23657  0.68927  Biso   1.000  H
  H314     1.0000 0.63285  0.28617  0.99137  Biso   1.000  H
  H315     1.0000 0.80815  0.94157  0.24497  Biso   1.000  H
  H316     1.0000 0.56935  0.57837  0.88327  Biso   1.000  H
  H317     1.0000 0.23795  0.13357  0.94157  Biso   1.000  H
  H318     1.0000 0.62715  0.94157  0.74957  Biso   1.000  H
  H319     1.0000 0.22755  0.99147  0.68927  Biso   1.000  H
  H320     1.0000 0.87425  0.57837  0.57837  Biso   1.000  H
  H321     1.0000 0.56935  0.57837  0.99987  Biso   1.000  H
  H322     1.0000 0.12455  0.24697  0.94157  Biso   1.000  H
  H323     1.0000 0.98235  0.59697  0.64187  Biso   1.000  H
  H324     1.0000 0.62915  0.94157  0.81717  Biso   1.000  H
  H325     1.0000 0.88275  0.59697  0.24127  Biso   1.000  H
  H326     1.0000 0.98245  0.68927  0.64657  Biso   1.000  H
  H327     1.0000 0.80685  0.94157  0.12647  Biso   1.000  H
  H328     1.0000 0.23795  0.74957  0.94157  Biso   1.000  H
  H329     1.0000 0.99175  0.52997  0.35317  Biso   1.000  H
  H330     1.0000 0.23225  0.89177  0.59697  Biso   1.000  H
  H331     1.0000 0.23225  0.28617  0.89177  Biso   1.000  H
  H332     1.0000 0.29575  0.99987  0.57837  Biso   1.000  H
  H333     1.0000 0.99175  0.52997  0.52997  Biso   1.000  H
  H334     1.0000 0.93255  0.74957  0.63617  Biso   1.000  H
  H335     1.0000 0.63755  0.89167  0.19387  Biso   1.000  H
  H336     1.0000 0.58795  0.24127  0.99137  Biso   1.000  H
  H337     1.0000 0.93255  0.24697  0.74957  Biso   1.000  H
  H338     1.0000 0.88275  0.28617  0.24127  Biso   1.000  H
  H339     1.0000 0.22755  0.99147  0.19387  Biso   1.000  H
  H340     1.0000 0.27715  0.24127  0.89177  Biso   1.000  H
  H341     1.0000 0.56935  0.99987  0.30477  Biso   1.000  H
  H342     1.0000 0.88275  0.64187  0.28617  Biso   1.000  H
  H343     1.0000 0.87425  0.30477  0.57837  Biso   1.000  H
  H344     1.0000 0.74765  0.94157  0.06727  Biso   1.000  H
  H345     1.0000 0.93255  0.63617  0.13357  Biso   1.000  H
  H346     1.0000 0.27715  0.64187  0.89177  Biso   1.000  H
  H347     1.0000 0.74765  0.06727  0.94157  Biso   1.000  H
  H348     1.0000 0.58795  0.64187  0.99137  Biso   1.000  H
  H349     1.0000 0.93255  0.75667  0.81587  Biso   1.000  H
  H350     1.0000 0.62915  0.94157  0.06597  Biso   1.000  H
  H351     1.0000 0.93255  0.06597  0.63817  Biso   1.000  H
  H352     1.0000 0.27715  0.64187  0.99137  Biso   1.000  H
  H353     1.0000 0.05825  0.75667  0.94157  Biso   1.000  H
  H354     1.0000 0.88265  0.68927  0.23657  Biso   1.000  H
  H355     1.0000 0.63285  0.99137  0.59697  Biso   1.000  H
  H356     1.0000 0.93255  0.63617  0.74957  Biso   1.000  H
  H357     1.0000 0.98245  0.23657  0.19387  Biso   1.000  H
  H358     1.0000 0.63285  0.89177  0.59697  Biso   1.000  H
  H359     1.0000 0.18485  0.89167  0.23657  Biso   1.000  H
  H360     1.0000 0.22755  0.19387  0.89167  Biso   1.000  H
  H361     1.0000 0.56935  0.99987  0.57837  Biso   1.000  H
  H362     1.0000 0.62915  0.06597  0.94157  Biso   1.000  H
  H363     1.0000 0.87425  0.57837  0.30477  Biso   1.000  H
  H364     1.0000 0.93255  0.63817  0.81717  Biso   1.000  H
  H365     1.0000 0.63285  0.59697  0.89177  Biso   1.000  H
  H366     1.0000 0.34415  0.52997  0.88237  Biso   1.000  H
  H367     1.0000 0.18485  0.23657  0.89167  Biso   1.000  H
  H368     1.0000 0.29575  0.30477  0.88327  Biso   1.000  H
  H369     1.0000 0.18485  0.89167  0.64657  Biso   1.000  H
  H370     1.0000 0.74055  0.24697  0.94157  Biso   1.000  H
  H371     1.0000 0.05695  0.94157  0.63817  Biso   1.000  H
  H372     1.0000 0.56935  0.88327  0.57837  Biso   1.000  H
  H373     1.0000 0.23595  0.06597  0.94157  Biso   1.000  H
  H374     1.0000 0.52095  0.35317  0.00077  Biso   1.000  H
  H375     1.0000 0.23225  0.99137  0.28617  Biso   1.000  H
  H376     1.0000 0.23225  0.59697  0.99137  Biso   1.000  H
  H377     1.0000 0.58795  0.99137  0.24127  Biso   1.000  H
  H378     1.0000 0.27715  0.99137  0.64187  Biso   1.000  H
  H379     1.0000 0.99175  0.35317  0.35317  Biso   1.000  H
  H380     1.0000 0.22755  0.68927  0.99147  Biso   1.000  H
  H381     1.0000 0.93255  0.24697  0.13357  Biso   1.000  H
  H382     1.0000 0.56935  0.30477  0.88327  Biso   1.000  H
  H383     1.0000 0.58795  0.24127  0.89177  Biso   1.000  H
  H384     1.0000 0.98235  0.24127  0.59697  Biso   1.000  H
  H385     1.0000 0.52095  0.52997  0.00077  Biso   1.000  H
  H386     1.0000 0.74765  0.81587  0.94157  Biso   1.000  H
  H387     1.0000 0.23795  0.94157  0.13357  Biso   1.000  H
  H388     1.0000 0.99085  0.30477  0.30477  Biso   1.000  H
  H389     1.0000 0.63755  0.99147  0.68927  Biso   1.000  H
  H390     1.0000 0.93255  0.12647  0.06727  Biso   1.000  H
  H391     1.0000 0.98245  0.68927  0.23657  Biso   1.000  H
  H392     1.0000 0.98245  0.19387  0.23657  Biso   1.000  H
  H393     1.0000 0.87425  0.30477  0.30477  Biso   1.000  H
  H394     1.0000 0.87335  0.35317  0.35317  Biso   1.000  H
  H395     1.0000 0.93255  0.81587  0.75667  Biso   1.000  H
  H396     1.0000 0.29575  0.88327  0.57837  Biso   1.000  H
  H397     1.0000 0.93255  0.06727  0.75667  Biso   1.000  H
  H398     1.0000 0.68025  0.64657  0.99147  Biso   1.000  H
  H399     1.0000 0.27715  0.89177  0.24127  Biso   1.000  H
  H400     1.0000 0.63755  0.68927  0.99147  Biso   1.000  H
  H401     1.0000 0.52095  0.52997  0.88237  Biso   1.000  H
  H402     1.0000 0.93255  0.81587  0.12647  Biso   1.000  H
  H403     1.0000 0.56935  0.30477  0.99987  Biso   1.000  H
  H404     1.0000 0.12455  0.94157  0.24697  Biso   1.000  H
  H405     1.0000 0.98245  0.19387  0.64657  Biso   1.000  H
  H406     1.0000 0.22755  0.89167  0.68927  Biso   1.000  H
  H407     1.0000 0.93255  0.75667  0.06727  Biso   1.000  H
  H408     1.0000 0.93255  0.63817  0.06597  Biso   1.000  H
  H409     1.0000 0.74055  0.94157  0.63617  Biso   1.000  H
  H410     1.0000 0.23225  0.99137  0.59697  Biso   1.000  H
  H411     1.0000 0.52095  0.88237  0.52997  Biso   1.000  H
  H412     1.0000 0.68025  0.64657  0.89167  Biso   1.000  H
  H413     1.0000 0.11745  0.81587  0.94157  Biso   1.000  H
  H414     1.0000 0.34415  0.88237  0.35317  Biso   1.000  H
  H415     1.0000 0.80685  0.75667  0.94157  Biso   1.000  H
  H416     1.0000 0.34415  0.00077  0.35317  Biso   1.000  H
  H417     1.0000 0.62715  0.13357  0.94157  Biso   1.000  H
  H418     1.0000 0.58795  0.89177  0.64187  Biso   1.000  H
  H419     1.0000 0.23225  0.28617  0.99137  Biso   1.000  H
  H420     1.0000 0.93255  0.06597  0.24497  Biso   1.000  H
  H421     1.0000 0.63755  0.89167  0.68927  Biso   1.000  H
  H422     1.0000 0.88265  0.23657  0.19387  Biso   1.000  H
  H423     1.0000 0.98235  0.59697  0.24127  Biso   1.000  H
  H424     1.0000 0.52095  0.88237  0.35317  Biso   1.000  H
  H425     1.0000 0.63755  0.68927  0.89167  Biso   1.000  H
  H426     1.0000 0.88265  0.19387  0.64657  Biso   1.000  H
  H427     1.0000 0.58795  0.64187  0.89177  Biso   1.000  H
  H428     1.0000 0.93255  0.81717  0.63817  Biso   1.000  H
  H429     1.0000 0.93255  0.24497  0.06597  Biso   1.000  H
  H430     1.0000 0.29575  0.30477  0.99987  Biso   1.000  H
  H431     1.0000 0.87335  0.35317  0.52997  Biso   1.000  H
  H432     1.0000 0.80685  0.94157  0.75667  Biso   1.000  H
  C373     1.0000 0.66297  0.94157  0.21115  Biso   1.000  C
  C374     1.0000 0.20320  0.23789  0.91195  Biso   1.000  C
  C375     1.0000 0.93255  0.12036  0.66018  Biso   1.000  C
  C376     1.0000 0.63321  0.26745  0.91180  Biso   1.000  C
  C377     1.0000 0.11134  0.94157  0.66018  Biso   1.000  C
  C378     1.0000 0.63321  0.91180  0.26745  Biso   1.000  C
  C379     1.0000 0.65116  0.94157  0.76278  Biso   1.000  C
  C380     1.0000 0.93255  0.21115  0.67199  Biso   1.000  C
  C381     1.0000 0.66190  0.64525  0.91195  Biso   1.000  C
  C382     1.0000 0.21250  0.08016  0.94157  Biso   1.000  C
  C383     1.0000 0.93255  0.01596  0.18536  Biso   1.000  C
  C384     1.0000 0.20213  0.94157  0.21115  Biso   1.000  C
  C385     1.0000 0.60667  0.64223  0.91180  Biso   1.000  C
  C386     1.0000 0.48471  0.94157  0.49373  Biso   1.000  C
  C387     1.0000 0.89794  0.56866  0.56866  Biso   1.000  C
  C388     1.0000 0.93255  0.80298  0.22152  Biso   1.000  C
  C389     1.0000 0.60528  0.94157  0.26884  Biso   1.000  C
  C390     1.0000 0.81447  0.94157  0.69776  Biso   1.000  C
  C391     1.0000 0.25843  0.97134  0.24091  Biso   1.000  C
  C392     1.0000 0.14138  0.80258  0.94157  Biso   1.000  C
  C393     1.0000 0.38039  0.49373  0.94157  Biso   1.000  C
  C394     1.0000 0.96217  0.23789  0.67092  Biso   1.000  C
  C395     1.0000 0.89794  0.56866  0.31448  Biso   1.000  C
  C396     1.0000 0.63321  0.61569  0.97134  Biso   1.000  C
  C397     1.0000 0.96232  0.61569  0.24091  Biso   1.000  C
  C398     1.0000 0.93255  0.73274  0.08056  Biso   1.000  C
  C399     1.0000 0.22887  0.67092  0.91195  Biso   1.000  C
  C400     1.0000 0.93255  0.69776  0.05965  Biso   1.000  C
  C401     1.0000 0.25843  0.64223  0.97134  Biso   1.000  C
  C402     1.0000 0.93255  0.58321  0.58321  Biso   1.000  C
  C403     1.0000 0.93255  0.38941  0.38941  Biso   1.000  C
  C404     1.0000 0.63623  0.91195  0.67092  Biso   1.000  C
  C405     1.0000 0.21250  0.80298  0.94157  Biso   1.000  C
  C406     1.0000 0.25843  0.97134  0.64223  Biso   1.000  C
  C407     1.0000 0.93255  0.80258  0.15040  Biso   1.000  C
  C408     1.0000 0.14208  0.12111  0.94157  Biso   1.000  C
  C409     1.0000 0.17894  0.14086  0.94157  Biso   1.000  C
  C410     1.0000 0.07114  0.22152  0.94157  Biso   1.000  C
  C411     1.0000 0.14138  0.94157  0.80258  Biso   1.000  C
  C412     1.0000 0.60667  0.91180  0.64223  Biso   1.000  C
  C413     1.0000 0.93255  0.26884  0.26884  Biso   1.000  C
  C414     1.0000 0.93255  0.76278  0.66018  Biso   1.000  C
  C415     1.0000 0.33462  0.90613  0.34364  Biso   1.000  C
  C416     1.0000 0.60528  0.26884  0.94157  Biso   1.000  C
  C417     1.0000 0.38039  0.94157  0.49373  Biso   1.000  C
  C418     1.0000 0.20320  0.91195  0.23789  Biso   1.000  C
  C419     1.0000 0.17636  0.94157  0.05965  Biso   1.000  C
  C420     1.0000 0.17634  0.86718  0.94157  Biso   1.000  C
  C421     1.0000 0.90293  0.23789  0.67092  Biso   1.000  C
  C422     1.0000 0.90293  0.23789  0.21222  Biso   1.000  C
  C423     1.0000 0.72372  0.94157  0.80258  Biso   1.000  C
  C424     1.0000 0.22887  0.91195  0.21222  Biso   1.000  C
  C425     1.0000 0.68874  0.94157  0.82349  Biso   1.000  C
  C426     1.0000 0.79396  0.94157  0.22152  Biso   1.000  C
  C427     1.0000 0.68876  0.94157  0.01596  Biso   1.000  C
  C428     1.0000 0.93255  0.21115  0.21115  Biso   1.000  C
  C429     1.0000 0.20320  0.97119  0.64525  Biso   1.000  C
  C430     1.0000 0.72372  0.08056  0.94157  Biso   1.000  C
  C431     1.0000 0.68616  0.14086  0.94157  Biso   1.000  C
  C432     1.0000 0.07154  0.73274  0.94157  Biso   1.000  C
  C433     1.0000 0.00694  0.94157  0.69778  Biso   1.000  C
  C434     1.0000 0.25843  0.64223  0.91180  Biso   1.000  C
  C435     1.0000 0.48471  0.94157  0.38941  Biso   1.000  C
  C436     1.0000 0.34880  0.35782  0.94157  Biso   1.000  C
  C437     1.0000 0.89794  0.31448  0.31448  Biso   1.000  C
  C438     1.0000 0.93255  0.73204  0.12111  Biso   1.000  C
  C439     1.0000 0.05063  0.94157  0.18538  Biso   1.000  C
  C440     1.0000 0.57419  0.94157  0.29993  Biso   1.000  C
  C441     1.0000 0.72302  0.94157  0.76203  Biso   1.000  C
  C442     1.0000 0.17634  0.01596  0.94157  Biso   1.000  C
  C443     1.0000 0.96217  0.21222  0.23789  Biso   1.000  C
  C444     1.0000 0.11134  0.22296  0.94157  Biso   1.000  C
  C445     1.0000 0.65260  0.94157  0.08016  Biso   1.000  C
  C446     1.0000 0.96799  0.53950  0.53950  Biso   1.000  C
  C447     1.0000 0.53048  0.34364  0.90613  Biso   1.000  C
  C448     1.0000 0.68616  0.94157  0.74228  Biso   1.000  C
  C449     1.0000 0.68874  0.82349  0.94157  Biso   1.000  C
  C450     1.0000 0.25982  0.94157  0.61430  Biso   1.000  C
  C451     1.0000 0.22887  0.97119  0.21222  Biso   1.000  C
  C452     1.0000 0.96232  0.64223  0.26745  Biso   1.000  C
  C453     1.0000 0.21394  0.12036  0.94157  Biso   1.000  C
  C454     1.0000 0.07154  0.94157  0.73274  Biso   1.000  C
  C455     1.0000 0.93255  0.22152  0.08016  Biso   1.000  C
  C456     1.0000 0.93255  0.08056  0.15040  Biso   1.000  C
  C457     1.0000 0.73326  0.94157  0.69518  Biso   1.000  C
  C458     1.0000 0.93255  0.74228  0.18796  Biso   1.000  C
  C459     1.0000 0.07114  0.66162  0.94157  Biso   1.000  C
  C460     1.0000 0.81447  0.94157  0.18538  Biso   1.000  C
  C461     1.0000 0.65260  0.94157  0.80298  Biso   1.000  C
  C462     1.0000 0.93255  0.35782  0.52532  Biso   1.000  C
  C463     1.0000 0.33462  0.34364  0.90613  Biso   1.000  C
  C464     1.0000 0.90293  0.64525  0.21222  Biso   1.000  C
  C465     1.0000 0.85816  0.69778  0.94157  Biso   1.000  C
  C466     1.0000 0.96799  0.53950  0.34364  Biso   1.000  C
  C467     1.0000 0.25843  0.91180  0.24091  Biso   1.000  C
  C468     1.0000 0.21394  0.94157  0.12036  Biso   1.000  C
  C469     1.0000 0.53048  0.90613  0.34364  Biso   1.000  C
  C470     1.0000 0.33462  0.34364  0.97701  Biso   1.000  C
  C471     1.0000 0.93255  0.18536  0.86718  Biso   1.000  C
  C472     1.0000 0.20213  0.67199  0.94157  Biso   1.000  C
  C473     1.0000 0.21394  0.94157  0.76278  Biso   1.000  C
  C474     1.0000 0.60528  0.61430  0.94157  Biso   1.000  C
  C475     1.0000 0.63623  0.67092  0.91195  Biso   1.000  C
  C476     1.0000 0.23189  0.91180  0.61569  Biso   1.000  C
  C477     1.0000 0.48471  0.49373  0.94157  Biso   1.000  C
  C478     1.0000 0.60528  0.94157  0.61430  Biso   1.000  C
  C479     1.0000 0.66190  0.64525  0.97119  Biso   1.000  C
  C480     1.0000 0.89711  0.34364  0.53950  Biso   1.000  C
  C481     1.0000 0.96217  0.67092  0.64525  Biso   1.000  C
  C482     1.0000 0.22887  0.97119  0.67092  Biso   1.000  C
  C483     1.0000 0.75376  0.66018  0.94157  Biso   1.000  C
  C484     1.0000 0.63321  0.91180  0.61569  Biso   1.000  C
  C485     1.0000 0.72372  0.80258  0.94157  Biso   1.000  C
  C486     1.0000 0.90278  0.64223  0.26745  Biso   1.000  C
  C487     1.0000 0.75376  0.22296  0.94157  Biso   1.000  C
  C488     1.0000 0.33462  0.97701  0.34364  Biso   1.000  C
  C489     1.0000 0.90293  0.64525  0.67092  Biso   1.000  C
  C490     1.0000 0.55964  0.56866  0.97618  Biso   1.000  C
  C491     1.0000 0.13184  0.69518  0.94157  Biso   1.000  C
  C492     1.0000 0.23189  0.26745  0.97134  Biso   1.000  C
  C493     1.0000 0.85816  0.94157  0.69778  Biso   1.000  C
  C494     1.0000 0.96716  0.56866  0.56866  Biso   1.000  C
  C495     1.0000 0.90278  0.24091  0.61569  Biso   1.000  C
  C496     1.0000 0.66190  0.91195  0.64525  Biso   1.000  C
  C497     1.0000 0.96217  0.64525  0.67092  Biso   1.000  C
  C498     1.0000 0.23189  0.26745  0.91180  Biso   1.000  C
  C499     1.0000 0.22887  0.91195  0.67092  Biso   1.000  C
  C500     1.0000 0.79356  0.15040  0.94157  Biso   1.000  C
  C501     1.0000 0.90293  0.67092  0.23789  Biso   1.000  C
  C502     1.0000 0.93255  0.49373  0.49373  Biso   1.000  C
  C503     1.0000 0.93255  0.66018  0.12036  Biso   1.000  C
  C504     1.0000 0.65116  0.94157  0.12036  Biso   1.000  C
  C505     1.0000 0.05063  0.18538  0.94157  Biso   1.000  C
  C506     1.0000 0.55964  0.90696  0.56866  Biso   1.000  C
  C507     1.0000 0.72372  0.94157  0.08056  Biso   1.000  C
  C508     1.0000 0.14208  0.94157  0.76203  Biso   1.000  C
  C509     1.0000 0.53048  0.97701  0.53950  Biso   1.000  C
  C510     1.0000 0.79396  0.22152  0.94157  Biso   1.000  C
  C511     1.0000 0.72302  0.12111  0.94157  Biso   1.000  C
  C512     1.0000 0.25843  0.24091  0.97134  Biso   1.000  C
  C513     1.0000 0.75301  0.15110  0.94157  Biso   1.000  C
  C514     1.0000 0.75301  0.73204  0.94157  Biso   1.000  C
  C515     1.0000 0.66190  0.97119  0.64525  Biso   1.000  C
  C516     1.0000 0.90278  0.64223  0.61569  Biso   1.000  C
  C517     1.0000 0.90278  0.61569  0.64223  Biso   1.000  C
  C518     1.0000 0.93255  0.14086  0.18796  Biso   1.000  C
  C519     1.0000 0.85816  0.18536  0.94157  Biso   1.000  C
  C520     1.0000 0.07154  0.94157  0.15040  Biso   1.000  C
  C521     1.0000 0.93255  0.69776  0.82349  Biso   1.000  C
  C522     1.0000 0.30546  0.90696  0.31448  Biso   1.000  C
  C523     1.0000 0.53048  0.53950  0.90613  Biso   1.000  C
  C524     1.0000 0.63623  0.21222  0.97119  Biso   1.000  C
  C525     1.0000 0.65116  0.12036  0.94157  Biso   1.000  C
  C526     1.0000 0.57419  0.58321  0.94157  Biso   1.000  C
  C527     1.0000 0.00694  0.94157  0.18536  Biso   1.000  C
  C528     1.0000 0.93255  0.67199  0.21115  Biso   1.000  C
  C529     1.0000 0.60667  0.91180  0.24091  Biso   1.000  C
  C530     1.0000 0.30546  0.31448  0.90696  Biso   1.000  C
  C531     1.0000 0.90278  0.24091  0.26745  Biso   1.000  C
  C532     1.0000 0.93255  0.15040  0.08056  Biso   1.000  C
  C533     1.0000 0.17894  0.94157  0.74228  Biso   1.000  C
  C534     1.0000 0.51630  0.52532  0.94157  Biso   1.000  C
  C535     1.0000 0.17634  0.94157  0.01596  Biso   1.000  C
  C536     1.0000 0.63321  0.26745  0.97134  Biso   1.000  C
  C537     1.0000 0.90293  0.67092  0.64525  Biso   1.000  C
  C538     1.0000 0.66190  0.91195  0.23789  Biso   1.000  C
  C539     1.0000 0.22887  0.67092  0.97119  Biso   1.000  C
  C540     1.0000 0.96232  0.26745  0.24091  Biso   1.000  C
  C541     1.0000 0.89794  0.31448  0.56866  Biso   1.000  C
  C542     1.0000 0.96232  0.61569  0.64223  Biso   1.000  C
  C543     1.0000 0.34880  0.94157  0.52532  Biso   1.000  C
  C544     1.0000 0.93255  0.15110  0.76203  Biso   1.000  C
  C545     1.0000 0.60667  0.64223  0.97134  Biso   1.000  C
  C546     1.0000 0.14208  0.76203  0.94157  Biso   1.000  C
  C547     1.0000 0.68874  0.05965  0.94157  Biso   1.000  C
  C548     1.0000 0.93255  0.69778  0.01596  Biso   1.000  C
  C549     1.0000 0.22887  0.21222  0.97119  Biso   1.000  C
  C550     1.0000 0.55964  0.97618  0.31448  Biso   1.000  C
  C551     1.0000 0.96716  0.31448  0.31448  Biso   1.000  C
  C552     1.0000 0.17636  0.05965  0.94157  Biso   1.000  C
  C553     1.0000 0.90293  0.21222  0.23789  Biso   1.000  C
  C554     1.0000 0.93255  0.15110  0.12111  Biso   1.000  C
  C555     1.0000 0.79396  0.94157  0.66162  Biso   1.000  C
  C556     1.0000 0.79356  0.94157  0.15040  Biso   1.000  C
  C557     1.0000 0.93255  0.08056  0.73274  Biso   1.000  C
  C558     1.0000 0.63623  0.91195  0.21222  Biso   1.000  C
  C559     1.0000 0.93255  0.52532  0.35782  Biso   1.000  C
  C560     1.0000 0.07154  0.15040  0.94157  Biso   1.000  C
  C561     1.0000 0.85816  0.94157  0.18536  Biso   1.000  C
  C562     1.0000 0.75376  0.94157  0.22296  Biso   1.000  C
  C563     1.0000 0.23189  0.61569  0.91180  Biso   1.000  C
  C564     1.0000 0.93255  0.66018  0.76278  Biso   1.000  C
  C565     1.0000 0.29091  0.29993  0.94157  Biso   1.000  C
  C566     1.0000 0.93255  0.52532  0.52532  Biso   1.000  C
  C567     1.0000 0.23189  0.97134  0.26745  Biso   1.000  C
  C568     1.0000 0.93255  0.73204  0.76203  Biso   1.000  C
  C569     1.0000 0.00694  0.69778  0.94157  Biso   1.000  C
  C570     1.0000 0.55964  0.56866  0.90696  Biso   1.000  C
  C571     1.0000 0.05063  0.94157  0.69776  Biso   1.000  C
  C572     1.0000 0.93255  0.12036  0.22296  Biso   1.000  C
  C573     1.0000 0.93255  0.22296  0.76278  Biso   1.000  C
  C574     1.0000 0.14138  0.08056  0.94157  Biso   1.000  C
  C575     1.0000 0.73326  0.18796  0.94157  Biso   1.000  C
  C576     1.0000 0.66190  0.23789  0.91195  Biso   1.000  C
  C577     1.0000 0.68876  0.01596  0.94157  Biso   1.000  C
  C578     1.0000 0.93255  0.82349  0.69776  Biso   1.000  C
  C579     1.0000 0.22887  0.21222  0.91195  Biso   1.000  C
  C580     1.0000 0.66297  0.67199  0.94157  Biso   1.000  C
  C581     1.0000 0.21250  0.94157  0.08016  Biso   1.000  C
  C582     1.0000 0.30546  0.31448  0.97618  Biso   1.000  C
  C583     1.0000 0.20213  0.21115  0.94157  Biso   1.000  C
  C584     1.0000 0.93255  0.80298  0.66162  Biso   1.000  C
  C585     1.0000 0.29091  0.58321  0.94157  Biso   1.000  C
  C586     1.0000 0.93255  0.49373  0.38941  Biso   1.000  C
  C587     1.0000 0.93255  0.76278  0.22296  Biso   1.000  C
  C588     1.0000 0.93255  0.15040  0.80258  Biso   1.000  C
  C589     1.0000 0.81447  0.18538  0.94157  Biso   1.000  C
  C590     1.0000 0.25843  0.24091  0.91180  Biso   1.000  C
  C591     1.0000 0.93255  0.12111  0.15110  Biso   1.000  C
  C592     1.0000 0.34880  0.52532  0.94157  Biso   1.000  C
  C593     1.0000 0.93255  0.69778  0.86718  Biso   1.000  C
  C594     1.0000 0.20320  0.64525  0.91195  Biso   1.000  C
  C595     1.0000 0.53048  0.90613  0.53950  Biso   1.000  C
  C596     1.0000 0.93255  0.61430  0.61430  Biso   1.000  C
  C597     1.0000 0.53048  0.97701  0.34364  Biso   1.000  C
  C598     1.0000 0.23189  0.97134  0.61569  Biso   1.000  C
  C599     1.0000 0.96232  0.26745  0.64223  Biso   1.000  C
  C600     1.0000 0.20320  0.64525  0.97119  Biso   1.000  C
  C601     1.0000 0.23189  0.91180  0.26745  Biso   1.000  C
  C602     1.0000 0.17634  0.94157  0.86718  Biso   1.000  C
  C603     1.0000 0.90278  0.26745  0.64223  Biso   1.000  C
  C604     1.0000 0.60667  0.24091  0.97134  Biso   1.000  C
  C605     1.0000 0.48471  0.38941  0.94157  Biso   1.000  C
  C606     1.0000 0.68874  0.94157  0.05965  Biso   1.000  C
  C607     1.0000 0.51630  0.35782  0.94157  Biso   1.000  C
  C608     1.0000 0.13184  0.18796  0.94157  Biso   1.000  C
  C609     1.0000 0.21250  0.94157  0.80298  Biso   1.000  C
  C610     1.0000 0.96232  0.24091  0.61569  Biso   1.000  C
  C611     1.0000 0.11209  0.94157  0.73204  Biso   1.000  C
  C612     1.0000 0.93255  0.18536  0.01596  Biso   1.000  C
  C613     1.0000 0.20213  0.94157  0.67199  Biso   1.000  C
  C614     1.0000 0.00694  0.18536  0.94157  Biso   1.000  C
  C615     1.0000 0.68876  0.86718  0.94157  Biso   1.000  C
  C616     1.0000 0.93255  0.01596  0.69778  Biso   1.000  C
  C617     1.0000 0.63623  0.67092  0.97119  Biso   1.000  C
  C618     1.0000 0.30546  0.56866  0.97618  Biso   1.000  C
  C619     1.0000 0.55964  0.31448  0.90696  Biso   1.000  C
  C620     1.0000 0.93255  0.08016  0.66162  Biso   1.000  C
  C621     1.0000 0.79356  0.73274  0.94157  Biso   1.000  C
  C622     1.0000 0.17636  0.82349  0.94157  Biso   1.000  C
  C623     1.0000 0.65116  0.76278  0.94157  Biso   1.000  C
  C624     1.0000 0.93255  0.80258  0.73274  Biso   1.000  C
  C625     1.0000 0.51630  0.94157  0.35782  Biso   1.000  C
  C626     1.0000 0.25982  0.61430  0.94157  Biso   1.000  C
  C627     1.0000 0.93255  0.86718  0.69778  Biso   1.000  C
  C628     1.0000 0.66297  0.94157  0.67199  Biso   1.000  C
  C629     1.0000 0.51630  0.94157  0.52532  Biso   1.000  C
  C630     1.0000 0.93255  0.18796  0.14086  Biso   1.000  C
  C631     1.0000 0.93255  0.35782  0.35782  Biso   1.000  C
  C632     1.0000 0.90278  0.26745  0.24091  Biso   1.000  C
  C633     1.0000 0.96217  0.64525  0.21222  Biso   1.000  C
  C634     1.0000 0.93255  0.12111  0.73204  Biso   1.000  C
  C635     1.0000 0.23189  0.61569  0.97134  Biso   1.000  C
  C636     1.0000 0.93255  0.18538  0.05965  Biso   1.000  C
  C637     1.0000 0.75301  0.94157  0.15110  Biso   1.000  C
  C638     1.0000 0.57419  0.29993  0.94157  Biso   1.000  C
  C639     1.0000 0.33462  0.53950  0.97701  Biso   1.000  C
  C640     1.0000 0.60667  0.24091  0.91180  Biso   1.000  C
  C641     1.0000 0.53048  0.34364  0.97701  Biso   1.000  C
  C642     1.0000 0.93255  0.14086  0.69518  Biso   1.000  C
  C643     1.0000 0.96716  0.31448  0.56866  Biso   1.000  C
  C644     1.0000 0.33462  0.97701  0.53950  Biso   1.000  C
  C645     1.0000 0.60667  0.97134  0.24091  Biso   1.000  C
  C646     1.0000 0.05063  0.69776  0.94157  Biso   1.000  C
  C647     1.0000 0.96217  0.67092  0.23789  Biso   1.000  C
  C648     1.0000 0.53048  0.53950  0.97701  Biso   1.000  C
  C649     1.0000 0.17636  0.94157  0.82349  Biso   1.000  C
  C650     1.0000 0.55964  0.31448  0.97618  Biso   1.000  C
  C651     1.0000 0.93255  0.73274  0.80258  Biso   1.000  C
  C652     1.0000 0.29091  0.94157  0.58321  Biso   1.000  C
  C653     1.0000 0.93255  0.08016  0.22152  Biso   1.000  C
  C654     1.0000 0.93255  0.26884  0.61430  Biso   1.000  C
  C655     1.0000 0.57419  0.94157  0.58321  Biso   1.000  C
  C656     1.0000 0.11134  0.66018  0.94157  Biso   1.000  C
  C657     1.0000 0.93255  0.66162  0.08016  Biso   1.000  C
  C658     1.0000 0.75376  0.94157  0.66018  Biso   1.000  C
  C659     1.0000 0.89711  0.53950  0.53950  Biso   1.000  C
  C660     1.0000 0.38039  0.38941  0.94157  Biso   1.000  C
  C661     1.0000 0.66297  0.21115  0.94157  Biso   1.000  C
  C662     1.0000 0.93255  0.22152  0.80298  Biso   1.000  C
  C663     1.0000 0.72302  0.76203  0.94157  Biso   1.000  C
  C664     1.0000 0.33462  0.90613  0.53950  Biso   1.000  C
  C665     1.0000 0.14138  0.94157  0.08056  Biso   1.000  C
  C666     1.0000 0.30546  0.56866  0.90696  Biso   1.000  C
  C667     1.0000 0.13184  0.94157  0.18796  Biso   1.000  C
  C668     1.0000 0.33462  0.53950  0.90613  Biso   1.000  C
  C669     1.0000 0.68616  0.94157  0.14086  Biso   1.000  C
  C670     1.0000 0.96232  0.24091  0.26745  Biso   1.000  C
  C671     1.0000 0.93255  0.05965  0.18538  Biso   1.000  C
  C672     1.0000 0.20320  0.97119  0.23789  Biso   1.000  C
  C673     1.0000 0.25843  0.91180  0.64223  Biso   1.000  C
  C674     1.0000 0.89711  0.34364  0.34364  Biso   1.000  C
  C675     1.0000 0.93255  0.67199  0.67199  Biso   1.000  C
  C676     1.0000 0.93255  0.61430  0.26884  Biso   1.000  C
  C677     1.0000 0.30546  0.90696  0.56866  Biso   1.000  C
  C678     1.0000 0.72302  0.94157  0.12111  Biso   1.000  C
  C679     1.0000 0.63321  0.97134  0.61569  Biso   1.000  C
  C680     1.0000 0.63623  0.97119  0.21222  Biso   1.000  C
  C681     1.0000 0.96217  0.23789  0.21222  Biso   1.000  C
  C682     1.0000 0.11209  0.73204  0.94157  Biso   1.000  C
  C683     1.0000 0.63623  0.97119  0.67092  Biso   1.000  C
  C684     1.0000 0.68616  0.74228  0.94157  Biso   1.000  C
  C685     1.0000 0.20320  0.91195  0.64525  Biso   1.000  C
  C686     1.0000 0.79356  0.94157  0.73274  Biso   1.000  C
  C687     1.0000 0.11209  0.15110  0.94157  Biso   1.000  C
  C688     1.0000 0.14208  0.94157  0.12111  Biso   1.000  C
  C689     1.0000 0.20320  0.23789  0.97119  Biso   1.000  C
  C690     1.0000 0.93255  0.66162  0.80298  Biso   1.000  C
  C691     1.0000 0.30546  0.97618  0.56866  Biso   1.000  C
  C692     1.0000 0.25982  0.94157  0.26884  Biso   1.000  C
  C693     1.0000 0.66190  0.97119  0.23789  Biso   1.000  C
  C694     1.0000 0.90293  0.21222  0.64525  Biso   1.000  C
  C695     1.0000 0.11209  0.94157  0.15110  Biso   1.000  C
  C696     1.0000 0.93255  0.05965  0.69776  Biso   1.000  C
  C697     1.0000 0.30546  0.97618  0.31448  Biso   1.000  C
  C698     1.0000 0.96799  0.34364  0.53950  Biso   1.000  C
  C699     1.0000 0.93255  0.22296  0.12036  Biso   1.000  C
  C700     1.0000 0.63321  0.97134  0.26745  Biso   1.000  C
  C701     1.0000 0.68876  0.94157  0.86718  Biso   1.000  C
  C702     1.0000 0.96217  0.21222  0.64525  Biso   1.000  C
  C703     1.0000 0.65260  0.80298  0.94157  Biso   1.000  C
  C704     1.0000 0.63321  0.61569  0.91180  Biso   1.000  C
  C705     1.0000 0.93255  0.76203  0.73204  Biso   1.000  C
  C706     1.0000 0.73326  0.69518  0.94157  Biso   1.000  C
  C707     1.0000 0.55964  0.90696  0.31448  Biso   1.000  C
  C708     1.0000 0.96799  0.34364  0.34364  Biso   1.000  C
  C709     1.0000 0.93255  0.29993  0.58321  Biso   1.000  C
  C710     1.0000 0.89711  0.53950  0.34364  Biso   1.000  C
  C711     1.0000 0.21394  0.76278  0.94157  Biso   1.000  C
  C712     1.0000 0.93255  0.76203  0.15110  Biso   1.000  C
  C713     1.0000 0.81447  0.69776  0.94157  Biso   1.000  C
  C714     1.0000 0.34880  0.94157  0.35782  Biso   1.000  C
  C715     1.0000 0.93255  0.69518  0.74228  Biso   1.000  C
  C716     1.0000 0.93255  0.74228  0.69518  Biso   1.000  C
  C717     1.0000 0.93255  0.58321  0.29993  Biso   1.000  C
  C718     1.0000 0.25982  0.26884  0.94157  Biso   1.000  C
  C719     1.0000 0.93255  0.29993  0.29993  Biso   1.000  C
  C720     1.0000 0.93255  0.69518  0.14086  Biso   1.000  C
  C721     1.0000 0.96716  0.56866  0.31448  Biso   1.000  C
  C722     1.0000 0.65260  0.08016  0.94157  Biso   1.000  C
  C723     1.0000 0.55964  0.97618  0.56866  Biso   1.000  C
  C724     1.0000 0.07114  0.94157  0.22152  Biso   1.000  C
  C725     1.0000 0.93255  0.18796  0.74228  Biso   1.000  C
  C726     1.0000 0.11134  0.94157  0.22296  Biso   1.000  C
  C727     1.0000 0.93255  0.38941  0.49373  Biso   1.000  C
  C728     1.0000 0.07114  0.94157  0.66162  Biso   1.000  C
  C729     1.0000 0.73326  0.94157  0.18796  Biso   1.000  C
  C730     1.0000 0.96232  0.64223  0.61569  Biso   1.000  C
  C731     1.0000 0.90278  0.61569  0.24091  Biso   1.000  C
  C732     1.0000 0.93255  0.82349  0.18538  Biso   1.000  C
  C733     1.0000 0.17894  0.94157  0.14086  Biso   1.000  C
  C734     1.0000 0.38039  0.94157  0.38941  Biso   1.000  C
  C735     1.0000 0.60667  0.97134  0.64223  Biso   1.000  C
  C736     1.0000 0.13184  0.94157  0.69518  Biso   1.000  C
  C737     1.0000 0.75301  0.94157  0.73204  Biso   1.000  C
  C738     1.0000 0.17894  0.74228  0.94157  Biso   1.000  C
  C739     1.0000 0.93255  0.86718  0.18536  Biso   1.000  C
  C740     1.0000 0.63623  0.21222  0.91195  Biso   1.000  C
  C741     1.0000 0.66190  0.23789  0.97119  Biso   1.000  C
  C742     1.0000 0.79396  0.66162  0.94157  Biso   1.000  C
  C743     1.0000 0.29091  0.94157  0.29993  Biso   1.000  C
  C744     1.0000 0.93255  0.18538  0.82349  Biso   1.000  C
  N13      1.0000 0.93255  0.70209  0.70209  Biso   1.000  N
  N14      1.0000 0.17203  0.70209  0.94157  Biso   1.000  N
  N15      1.0000 0.93255  0.70209  0.18105  Biso   1.000  N
  N16      1.0000 0.69307  0.94157  0.70209  Biso   1.000  N
  N17      1.0000 0.17203  0.94157  0.18105  Biso   1.000  N
  N18      1.0000 0.69307  0.70209  0.94157  Biso   1.000  N
  N19      1.0000 0.93255  0.18105  0.18105  Biso   1.000  N
  N20      1.0000 0.69307  0.94157  0.18105  Biso   1.000  N
  N21      1.0000 0.17203  0.18105  0.94157  Biso   1.000  N
  N22      1.0000 0.93255  0.18105  0.70209  Biso   1.000  N
  N23      1.0000 0.69307  0.18105  0.94157  Biso   1.000  N
  N24      1.0000 0.17203  0.94157  0.70209  Biso   1.000  N
  O73      1.0000 0.65590  0.94157  0.99891  Biso   1.000  O
  O74      1.0000 0.14324  0.88417  0.94157  Biso   1.000  O
  O75      1.0000 0.47320  0.48222  0.90802  Biso   1.000  O
  O76      1.0000 0.98995  0.94157  0.73088  Biso   1.000  O
  O77      1.0000 0.39190  0.48222  0.97512  Biso   1.000  O
  O78      1.0000 0.47320  0.48222  0.97512  Biso   1.000  O
  O79      1.0000 0.39190  0.40092  0.97512  Biso   1.000  O
  O80      1.0000 0.96610  0.40092  0.48222  Biso   1.000  O
  O81      1.0000 0.20920  0.94157  0.88423  Biso   1.000  O
  O82      1.0000 0.72186  0.94157  0.88417  Biso   1.000  O
  O83      1.0000 0.47320  0.97512  0.48222  Biso   1.000  O
  O84      1.0000 0.47320  0.97512  0.40092  Biso   1.000  O
  O85      1.0000 0.93255  0.66492  0.88423  Biso   1.000  O
  O86      1.0000 0.39190  0.48222  0.90802  Biso   1.000  O
  O87      1.0000 0.89900  0.48222  0.40092  Biso   1.000  O
  O88      1.0000 0.93255  0.88417  0.73088  Biso   1.000  O
  O89      1.0000 0.39190  0.97512  0.48222  Biso   1.000  O
  O90      1.0000 0.93255  0.99891  0.21822  Biso   1.000  O
  O91      1.0000 0.98995  0.94157  0.15226  Biso   1.000  O
  O92      1.0000 0.93255  0.88423  0.66492  Biso   1.000  O
  O93      1.0000 0.87521  0.66492  0.94157  Biso   1.000  O
  O94      1.0000 0.93255  0.88423  0.21822  Biso   1.000  O
  O95      1.0000 0.72186  0.99897  0.94157  Biso   1.000  O
  O96      1.0000 0.20920  0.94157  0.99891  Biso   1.000  O
  O97      1.0000 0.14324  0.94157  0.88417  Biso   1.000  O
  O98      1.0000 0.96610  0.48222  0.40092  Biso   1.000  O
  O99      1.0000 0.93255  0.88417  0.15226  Biso   1.000  O
  O100     1.0000 0.87515  0.15226  0.94157  Biso   1.000  O
  O101     1.0000 0.93255  0.21822  0.99891  Biso   1.000  O
  O102     1.0000 0.89900  0.40092  0.48222  Biso   1.000  O
  O103     1.0000 0.72186  0.94157  0.99897  Biso   1.000  O
  O104     1.0000 0.39190  0.90802  0.48222  Biso   1.000  O
  O105     1.0000 0.87515  0.94157  0.15226  Biso   1.000  O
  O106     1.0000 0.65590  0.94157  0.88423  Biso   1.000  O
  O107     1.0000 0.96610  0.48222  0.48222  Biso   1.000  O
  O108     1.0000 0.93255  0.99891  0.66492  Biso   1.000  O
  O109     1.0000 0.47320  0.90802  0.40092  Biso   1.000  O
  O110     1.0000 0.98989  0.21822  0.94157  Biso   1.000  O
  O111     1.0000 0.87515  0.94157  0.73088  Biso   1.000  O
  O112     1.0000 0.39190  0.97512  0.40092  Biso   1.000  O
  O113     1.0000 0.47320  0.40092  0.90802  Biso   1.000  O
  O114     1.0000 0.65590  0.88423  0.94157  Biso   1.000  O
  O115     1.0000 0.98995  0.73088  0.94157  Biso   1.000  O
  O116     1.0000 0.47320  0.40092  0.97512  Biso   1.000  O
  O117     1.0000 0.93255  0.21822  0.88423  Biso   1.000  O
  O118     1.0000 0.14324  0.99897  0.94157  Biso   1.000  O
  O119     1.0000 0.65590  0.99891  0.94157  Biso   1.000  O
  O120     1.0000 0.93255  0.15226  0.99897  Biso   1.000  O
  O121     1.0000 0.39190  0.90802  0.40092  Biso   1.000  O
  O122     1.0000 0.87515  0.73088  0.94157  Biso   1.000  O
  O123     1.0000 0.87521  0.94157  0.21822  Biso   1.000  O
  O124     1.0000 0.98995  0.15226  0.94157  Biso   1.000  O
  O125     1.0000 0.93255  0.99897  0.15226  Biso   1.000  O
  O126     1.0000 0.87521  0.94157  0.66492  Biso   1.000  O
  O127     1.0000 0.89900  0.48222  0.48222  Biso   1.000  O
  O128     1.0000 0.87521  0.21822  0.94157  Biso   1.000  O
  O129     1.0000 0.93255  0.15226  0.88417  Biso   1.000  O
  O130     1.0000 0.96610  0.40092  0.40092  Biso   1.000  O
  O131     1.0000 0.72186  0.88417  0.94157  Biso   1.000  O
  O132     1.0000 0.93255  0.66492  0.99891  Biso   1.000  O
  O133     1.0000 0.93255  0.99897  0.73088  Biso   1.000  O
  O134     1.0000 0.14324  0.94157  0.99897  Biso   1.000  O
  O135     1.0000 0.39190  0.40092  0.90802  Biso   1.000  O
  O136     1.0000 0.47320  0.90802  0.48222  Biso   1.000  O
  O137     1.0000 0.93255  0.73088  0.99897  Biso   1.000  O
  O138     1.0000 0.20920  0.99891  0.94157  Biso   1.000  O
  O139     1.0000 0.93255  0.73088  0.88417  Biso   1.000  O
  O140     1.0000 0.89900  0.40092  0.40092  Biso   1.000  O
  O141     1.0000 0.98989  0.94157  0.66492  Biso   1.000  O
  O142     1.0000 0.98989  0.66492  0.94157  Biso   1.000  O
  O143     1.0000 0.20920  0.88423  0.94157  Biso   1.000  O
