data_image0
_cell_length_a       27.86
_cell_length_b       27.86
_cell_length_c       27.86
_cell_angle_alpha    90
_cell_angle_beta     90
_cell_angle_gamma    90

_symmetry_space_group_name_H-M    "P 1"
_symmetry_int_tables_number       1

loop_
  _symmetry_equiv_pos_as_xyz
  'x, y, z'

loop_
  _atom_site_label
  _atom_site_occupancy
  _atom_site_fract_x
  _atom_site_fract_y
  _atom_site_fract_z
  _atom_site_thermal_displace_type
  _atom_site_B_iso_or_equiv
  _atom_site_type_symbol
  Cu1      1.0000 0.00000  0.45244  0.00000  Biso   1.000  Cu
  Cu2      1.0000 0.50000  0.50000  0.84464  Biso   1.000  Cu
  Cu3      1.0000 0.84464  0.50000  0.50000  Biso   1.000  Cu
  Cu4      1.0000 0.75021  0.50000  0.50000  Biso   1.000  Cu
  Cu5      1.0000 0.15536  0.50000  0.50000  Biso   1.000  Cu
  Cu6      1.0000 0.45244  0.00000  0.00000  Biso   1.000  Cu
  Cu7      1.0000 0.50000  0.75021  0.50000  Biso   1.000  Cu
  Cu8      1.0000 0.24979  0.50000  0.50000  Biso   1.000  Cu
  Cu9      1.0000 0.50000  0.24979  0.50000  Biso   1.000  Cu
  Cu10     1.0000 0.00000  0.00000  0.54756  Biso   1.000  Cu
  Cu11     1.0000 0.50000  0.15536  0.50000  Biso   1.000  Cu
  Cu12     1.0000 0.50000  0.50000  0.75021  Biso   1.000  Cu
  Cu13     1.0000 0.50000  0.84464  0.50000  Biso   1.000  Cu
  Cu14     1.0000 0.50000  0.50000  0.15536  Biso   1.000  Cu
  Cu15     1.0000 0.00000  0.00000  0.45244  Biso   1.000  Cu
  Cu16     1.0000 0.54756  0.00000  0.00000  Biso   1.000  Cu
  Cu17     1.0000 0.00000  0.54756  0.00000  Biso   1.000  Cu
  Cu18     1.0000 0.50000  0.50000  0.24979  Biso   1.000  Cu
  H1       1.0000 0.50000  0.73410  0.12820  Biso   1.000  H
  H2       1.0000 0.10730  0.43100  0.89270  Biso   1.000  H
  H3       1.0000 0.50000  0.26590  0.12820  Biso   1.000  H
  H4       1.0000 0.72590  0.65320  0.50000  Biso   1.000  H
  H5       1.0000 0.73410  0.50000  0.12820  Biso   1.000  H
  H6       1.0000 0.16780  0.83220  0.43230  Biso   1.000  H
  H7       1.0000 0.10730  0.89270  0.56900  Biso   1.000  H
  H8       1.0000 0.16780  0.83220  0.56770  Biso   1.000  H
  H9       1.0000 0.34860  0.50000  0.87010  Biso   1.000  H
  H10      1.0000 0.43100  0.10730  0.10730  Biso   1.000  H
  H11      1.0000 0.50000  0.87180  0.73410  Biso   1.000  H
  H12      1.0000 0.50000  0.65140  0.12990  Biso   1.000  H
  H13      1.0000 0.26590  0.50000  0.87180  Biso   1.000  H
  H14      1.0000 0.89270  0.89270  0.43100  Biso   1.000  H
  H15      1.0000 0.73410  0.87180  0.50000  Biso   1.000  H
  H16      1.0000 0.12990  0.50000  0.34860  Biso   1.000  H
  H17      1.0000 0.27410  0.50000  0.65320  Biso   1.000  H
  H18      1.0000 0.83220  0.16780  0.56770  Biso   1.000  H
  H19      1.0000 0.87010  0.34860  0.50000  Biso   1.000  H
  H20      1.0000 0.50000  0.12820  0.26590  Biso   1.000  H
  H21      1.0000 0.83220  0.56770  0.16780  Biso   1.000  H
  H22      1.0000 0.34680  0.50000  0.72590  Biso   1.000  H
  H23      1.0000 0.27410  0.50000  0.34680  Biso   1.000  H
  H24      1.0000 0.34680  0.27410  0.50000  Biso   1.000  H
  H25      1.0000 0.65320  0.27410  0.50000  Biso   1.000  H
  H26      1.0000 0.12990  0.65140  0.50000  Biso   1.000  H
  H27      1.0000 0.65140  0.87010  0.50000  Biso   1.000  H
  H28      1.0000 0.50000  0.26590  0.87180  Biso   1.000  H
  H29      1.0000 0.43100  0.89270  0.10730  Biso   1.000  H
  H30      1.0000 0.34680  0.50000  0.27410  Biso   1.000  H
  H31      1.0000 0.43100  0.89270  0.89270  Biso   1.000  H
  H32      1.0000 0.50000  0.72590  0.34680  Biso   1.000  H
  H33      1.0000 0.50000  0.27410  0.34680  Biso   1.000  H
  H34      1.0000 0.83220  0.16780  0.43230  Biso   1.000  H
  H35      1.0000 0.12820  0.73410  0.50000  Biso   1.000  H
  H36      1.0000 0.34860  0.87010  0.50000  Biso   1.000  H
  H37      1.0000 0.56770  0.83220  0.16780  Biso   1.000  H
  H38      1.0000 0.83220  0.83220  0.56770  Biso   1.000  H
  H39      1.0000 0.87180  0.26590  0.50000  Biso   1.000  H
  H40      1.0000 0.56770  0.83220  0.83220  Biso   1.000  H
  H41      1.0000 0.50000  0.87180  0.26590  Biso   1.000  H
  H42      1.0000 0.34680  0.72590  0.50000  Biso   1.000  H
  H43      1.0000 0.50000  0.72590  0.65320  Biso   1.000  H
  H44      1.0000 0.16780  0.43230  0.83220  Biso   1.000  H
  H45      1.0000 0.89270  0.10730  0.56900  Biso   1.000  H
  H46      1.0000 0.43230  0.16780  0.16780  Biso   1.000  H
  H47      1.0000 0.83220  0.83220  0.43230  Biso   1.000  H
  H48      1.0000 0.50000  0.65320  0.72590  Biso   1.000  H
  H49      1.0000 0.56900  0.89270  0.10730  Biso   1.000  H
  H50      1.0000 0.12990  0.34860  0.50000  Biso   1.000  H
  H51      1.0000 0.10730  0.10730  0.56900  Biso   1.000  H
  H52      1.0000 0.16780  0.43230  0.16780  Biso   1.000  H
  H53      1.0000 0.89270  0.10730  0.43100  Biso   1.000  H
  H54      1.0000 0.27410  0.34680  0.50000  Biso   1.000  H
  H55      1.0000 0.87180  0.50000  0.73410  Biso   1.000  H
  H56      1.0000 0.72590  0.50000  0.65320  Biso   1.000  H
  H57      1.0000 0.10730  0.10730  0.43100  Biso   1.000  H
  H58      1.0000 0.65320  0.50000  0.72590  Biso   1.000  H
  H59      1.0000 0.50000  0.65140  0.87010  Biso   1.000  H
  H60      1.0000 0.65140  0.50000  0.87010  Biso   1.000  H
  H61      1.0000 0.65320  0.72590  0.50000  Biso   1.000  H
  H62      1.0000 0.56900  0.10730  0.89270  Biso   1.000  H
  H63      1.0000 0.50000  0.87010  0.65140  Biso   1.000  H
  H64      1.0000 0.83220  0.43230  0.83220  Biso   1.000  H
  H65      1.0000 0.89270  0.43100  0.89270  Biso   1.000  H
  H66      1.0000 0.89270  0.56900  0.10730  Biso   1.000  H
  H67      1.0000 0.89270  0.56900  0.89270  Biso   1.000  H
  H68      1.0000 0.87010  0.50000  0.34860  Biso   1.000  H
  H69      1.0000 0.87180  0.73410  0.50000  Biso   1.000  H
  H70      1.0000 0.65140  0.12990  0.50000  Biso   1.000  H
  H71      1.0000 0.34860  0.12990  0.50000  Biso   1.000  H
  H72      1.0000 0.43230  0.83220  0.16780  Biso   1.000  H
  H73      1.0000 0.89270  0.43100  0.10730  Biso   1.000  H
  H74      1.0000 0.65140  0.50000  0.12990  Biso   1.000  H
  H75      1.0000 0.12820  0.50000  0.73410  Biso   1.000  H
  H76      1.0000 0.50000  0.27410  0.65320  Biso   1.000  H
  H77      1.0000 0.50000  0.65320  0.27410  Biso   1.000  H
  H78      1.0000 0.26590  0.87180  0.50000  Biso   1.000  H
  H79      1.0000 0.83220  0.56770  0.83220  Biso   1.000  H
  H80      1.0000 0.73410  0.50000  0.87180  Biso   1.000  H
  H81      1.0000 0.27410  0.65320  0.50000  Biso   1.000  H
  H82      1.0000 0.10730  0.56900  0.89270  Biso   1.000  H
  H83      1.0000 0.87010  0.65140  0.50000  Biso   1.000  H
  H84      1.0000 0.83220  0.43230  0.16780  Biso   1.000  H
  H85      1.0000 0.50000  0.12990  0.34860  Biso   1.000  H
  H86      1.0000 0.50000  0.34860  0.12990  Biso   1.000  H
  H87      1.0000 0.10730  0.56900  0.10730  Biso   1.000  H
  H88      1.0000 0.56770  0.16780  0.16780  Biso   1.000  H
  H89      1.0000 0.72590  0.50000  0.34680  Biso   1.000  H
  H90      1.0000 0.65320  0.50000  0.27410  Biso   1.000  H
  H91      1.0000 0.50000  0.12820  0.73410  Biso   1.000  H
  H92      1.0000 0.26590  0.12820  0.50000  Biso   1.000  H
  H93      1.0000 0.12820  0.26590  0.50000  Biso   1.000  H
  H94      1.0000 0.10730  0.89270  0.43100  Biso   1.000  H
  H95      1.0000 0.12990  0.50000  0.65140  Biso   1.000  H
  H96      1.0000 0.50000  0.73410  0.87180  Biso   1.000  H
  H97      1.0000 0.43230  0.83220  0.83220  Biso   1.000  H
  H98      1.0000 0.16780  0.16780  0.43230  Biso   1.000  H
  H99      1.0000 0.12820  0.50000  0.26590  Biso   1.000  H
  H100     1.0000 0.50000  0.34680  0.72590  Biso   1.000  H
  H101     1.0000 0.87180  0.50000  0.26590  Biso   1.000  H
  H102     1.0000 0.16780  0.16780  0.56770  Biso   1.000  H
  H103     1.0000 0.50000  0.87010  0.34860  Biso   1.000  H
  H104     1.0000 0.43230  0.16780  0.83220  Biso   1.000  H
  H105     1.0000 0.56900  0.89270  0.89270  Biso   1.000  H
  H106     1.0000 0.72590  0.34680  0.50000  Biso   1.000  H
  H107     1.0000 0.50000  0.34860  0.87010  Biso   1.000  H
  H108     1.0000 0.87010  0.50000  0.65140  Biso   1.000  H
  H109     1.0000 0.50000  0.12990  0.65140  Biso   1.000  H
  H110     1.0000 0.50000  0.34680  0.27410  Biso   1.000  H
  H111     1.0000 0.43100  0.10730  0.89270  Biso   1.000  H
  H112     1.0000 0.34860  0.50000  0.12990  Biso   1.000  H
  H113     1.0000 0.56900  0.10730  0.10730  Biso   1.000  H
  H114     1.0000 0.73410  0.12820  0.50000  Biso   1.000  H
  H115     1.0000 0.89270  0.89270  0.56900  Biso   1.000  H
  H116     1.0000 0.16780  0.56770  0.83220  Biso   1.000  H
  H117     1.0000 0.10730  0.43100  0.10730  Biso   1.000  H
  H118     1.0000 0.16780  0.56770  0.16780  Biso   1.000  H
  H119     1.0000 0.26590  0.50000  0.12820  Biso   1.000  H
  H120     1.0000 0.56770  0.16780  0.83220  Biso   1.000  H
  C1       1.0000 0.75523  0.50000  0.28092  Biso   1.000  C
  C2       1.0000 0.50000  0.25683  0.80004  Biso   1.000  C
  C3       1.0000 0.50000  0.71789  0.84258  Biso   1.000  C
  C4       1.0000 0.10148  0.89852  0.50000  Biso   1.000  C
  C5       1.0000 0.15591  0.53880  0.15591  Biso   1.000  C
  C6       1.0000 0.50000  0.40931  0.79735  Biso   1.000  C
  C7       1.0000 0.28092  0.24477  0.50000  Biso   1.000  C
  C8       1.0000 0.80004  0.25683  0.50000  Biso   1.000  C
  C9       1.0000 0.10148  0.10148  0.50000  Biso   1.000  C
  C10      1.0000 0.50000  0.89852  0.89852  Biso   1.000  C
  C11      1.0000 0.50000  0.66858  0.15853  Biso   1.000  C
  C12      1.0000 0.84258  0.50000  0.28211  Biso   1.000  C
  C13      1.0000 0.88134  0.46030  0.11866  Biso   1.000  C
  C14      1.0000 0.50000  0.80004  0.25683  Biso   1.000  C
  C15      1.0000 0.50000  0.33142  0.84147  Biso   1.000  C
  C16      1.0000 0.50000  0.74317  0.80004  Biso   1.000  C
  C17      1.0000 0.40931  0.50000  0.20265  Biso   1.000  C
  C18      1.0000 0.28211  0.50000  0.84258  Biso   1.000  C
  C19      1.0000 0.20259  0.50000  0.35600  Biso   1.000  C
  C20      1.0000 0.53880  0.15591  0.15591  Biso   1.000  C
  C21      1.0000 0.50000  0.84258  0.28211  Biso   1.000  C
  C22      1.0000 0.50000  0.71908  0.75523  Biso   1.000  C
  C23      1.0000 0.71908  0.24477  0.50000  Biso   1.000  C
  C24      1.0000 0.46120  0.15591  0.15591  Biso   1.000  C
  C25      1.0000 0.46030  0.11866  0.11866  Biso   1.000  C
  C26      1.0000 0.15591  0.53880  0.84409  Biso   1.000  C
  C27      1.0000 0.35600  0.79741  0.50000  Biso   1.000  C
  C28      1.0000 0.50000  0.71789  0.15742  Biso   1.000  C
  C29      1.0000 0.88134  0.88134  0.53970  Biso   1.000  C
  C30      1.0000 0.28092  0.50000  0.75523  Biso   1.000  C
  C31      1.0000 0.11866  0.11866  0.53970  Biso   1.000  C
  C32      1.0000 0.84147  0.66858  0.50000  Biso   1.000  C
  C33      1.0000 0.84147  0.50000  0.33142  Biso   1.000  C
  C34      1.0000 0.20265  0.50000  0.40931  Biso   1.000  C
  C35      1.0000 0.15742  0.71789  0.50000  Biso   1.000  C
  C36      1.0000 0.71789  0.84258  0.50000  Biso   1.000  C
  C37      1.0000 0.84147  0.50000  0.66858  Biso   1.000  C
  C38      1.0000 0.80004  0.74317  0.50000  Biso   1.000  C
  C39      1.0000 0.20259  0.64400  0.50000  Biso   1.000  C
  C40      1.0000 0.84409  0.46120  0.15591  Biso   1.000  C
  C41      1.0000 0.84258  0.28211  0.50000  Biso   1.000  C
  C42      1.0000 0.50000  0.33046  0.24496  Biso   1.000  C
  C43      1.0000 0.75523  0.71908  0.50000  Biso   1.000  C
  C44      1.0000 0.24496  0.66954  0.50000  Biso   1.000  C
  C45      1.0000 0.25683  0.50000  0.80004  Biso   1.000  C
  C46      1.0000 0.74317  0.50000  0.80004  Biso   1.000  C
  C47      1.0000 0.79741  0.50000  0.64400  Biso   1.000  C
  C48      1.0000 0.35600  0.50000  0.20259  Biso   1.000  C
  C49      1.0000 0.50000  0.24496  0.66954  Biso   1.000  C
  C50      1.0000 0.50000  0.35600  0.79741  Biso   1.000  C
  C51      1.0000 0.46120  0.15591  0.84409  Biso   1.000  C
  C52      1.0000 0.50000  0.17224  0.82776  Biso   1.000  C
  C53      1.0000 0.19996  0.74317  0.50000  Biso   1.000  C
  C54      1.0000 0.11866  0.88134  0.53970  Biso   1.000  C
  C55      1.0000 0.11866  0.11866  0.46030  Biso   1.000  C
  C56      1.0000 0.84409  0.53880  0.15591  Biso   1.000  C
  C57      1.0000 0.28211  0.84258  0.50000  Biso   1.000  C
  C58      1.0000 0.84409  0.15591  0.46120  Biso   1.000  C
  C59      1.0000 0.84258  0.50000  0.71789  Biso   1.000  C
  C60      1.0000 0.40931  0.50000  0.79735  Biso   1.000  C
  C61      1.0000 0.88134  0.11866  0.46030  Biso   1.000  C
  C62      1.0000 0.66858  0.15853  0.50000  Biso   1.000  C
  C63      1.0000 0.50000  0.06376  0.93624  Biso   1.000  C
  C64      1.0000 0.50000  0.93624  0.93624  Biso   1.000  C
  C65      1.0000 0.24477  0.50000  0.71908  Biso   1.000  C
  C66      1.0000 0.50000  0.84147  0.33142  Biso   1.000  C
  C67      1.0000 0.84409  0.84409  0.53880  Biso   1.000  C
  C68      1.0000 0.84409  0.46120  0.84409  Biso   1.000  C
  C69      1.0000 0.15591  0.46120  0.15591  Biso   1.000  C
  C70      1.0000 0.25683  0.80004  0.50000  Biso   1.000  C
  C71      1.0000 0.50000  0.20265  0.40931  Biso   1.000  C
  C72      1.0000 0.50000  0.79741  0.64400  Biso   1.000  C
  C73      1.0000 0.88134  0.53970  0.88134  Biso   1.000  C
  C74      1.0000 0.33046  0.75504  0.50000  Biso   1.000  C
  C75      1.0000 0.71789  0.50000  0.84258  Biso   1.000  C
  C76      1.0000 0.59069  0.20265  0.50000  Biso   1.000  C
  C77      1.0000 0.50000  0.15853  0.33142  Biso   1.000  C
  C78      1.0000 0.50000  0.33142  0.15853  Biso   1.000  C
  C79      1.0000 0.17224  0.50000  0.17224  Biso   1.000  C
  C80      1.0000 0.88134  0.11866  0.53970  Biso   1.000  C
  C81      1.0000 0.71789  0.50000  0.15742  Biso   1.000  C
  C82      1.0000 0.33142  0.15853  0.50000  Biso   1.000  C
  C83      1.0000 0.71908  0.50000  0.24477  Biso   1.000  C
  C84      1.0000 0.84409  0.53880  0.84409  Biso   1.000  C
  C85      1.0000 0.89852  0.10148  0.50000  Biso   1.000  C
  C86      1.0000 0.15742  0.50000  0.71789  Biso   1.000  C
  C87      1.0000 0.80004  0.50000  0.74317  Biso   1.000  C
  C88      1.0000 0.50000  0.15853  0.66858  Biso   1.000  C
  C89      1.0000 0.50000  0.64400  0.20259  Biso   1.000  C
  C90      1.0000 0.59069  0.50000  0.79735  Biso   1.000  C
  C91      1.0000 0.20265  0.40931  0.50000  Biso   1.000  C
  C92      1.0000 0.17224  0.50000  0.82776  Biso   1.000  C
  C93      1.0000 0.33142  0.84147  0.50000  Biso   1.000  C
  C94      1.0000 0.50000  0.24477  0.28092  Biso   1.000  C
  C95      1.0000 0.53970  0.11866  0.11866  Biso   1.000  C
  C96      1.0000 0.28211  0.15742  0.50000  Biso   1.000  C
  C97      1.0000 0.15853  0.66858  0.50000  Biso   1.000  C
  C98      1.0000 0.75523  0.50000  0.71908  Biso   1.000  C
  C99      1.0000 0.35600  0.50000  0.79741  Biso   1.000  C
  C100     1.0000 0.15591  0.84409  0.53880  Biso   1.000  C
  C101     1.0000 0.84409  0.84409  0.46120  Biso   1.000  C
  C102     1.0000 0.20259  0.50000  0.64400  Biso   1.000  C
  C103     1.0000 0.84258  0.71789  0.50000  Biso   1.000  C
  C104     1.0000 0.19996  0.50000  0.74317  Biso   1.000  C
  C105     1.0000 0.93624  0.93624  0.50000  Biso   1.000  C
  C106     1.0000 0.46030  0.88134  0.88134  Biso   1.000  C
  C107     1.0000 0.50000  0.24477  0.71908  Biso   1.000  C
  C108     1.0000 0.66954  0.24496  0.50000  Biso   1.000  C
  C109     1.0000 0.50000  0.75523  0.28092  Biso   1.000  C
  C110     1.0000 0.66954  0.50000  0.24496  Biso   1.000  C
  C111     1.0000 0.74317  0.50000  0.19996  Biso   1.000  C
  C112     1.0000 0.40931  0.20265  0.50000  Biso   1.000  C
  C113     1.0000 0.19996  0.50000  0.25683  Biso   1.000  C
  C114     1.0000 0.50000  0.66858  0.84147  Biso   1.000  C
  C115     1.0000 0.17224  0.82776  0.50000  Biso   1.000  C
  C116     1.0000 0.59069  0.50000  0.20265  Biso   1.000  C
  C117     1.0000 0.50000  0.79735  0.40931  Biso   1.000  C
  C118     1.0000 0.50000  0.82776  0.17224  Biso   1.000  C
  C119     1.0000 0.33142  0.50000  0.15853  Biso   1.000  C
  C120     1.0000 0.71789  0.15742  0.50000  Biso   1.000  C
  C121     1.0000 0.50000  0.28092  0.24477  Biso   1.000  C
  C122     1.0000 0.46030  0.11866  0.88134  Biso   1.000  C
  C123     1.0000 0.15742  0.50000  0.28211  Biso   1.000  C
  C124     1.0000 0.53970  0.88134  0.11866  Biso   1.000  C
  C125     1.0000 0.06376  0.93624  0.50000  Biso   1.000  C
  C126     1.0000 0.11866  0.46030  0.88134  Biso   1.000  C
  C127     1.0000 0.53970  0.11866  0.88134  Biso   1.000  C
  C128     1.0000 0.50000  0.66954  0.75504  Biso   1.000  C
  C129     1.0000 0.50000  0.33046  0.75504  Biso   1.000  C
  C130     1.0000 0.50000  0.28211  0.84258  Biso   1.000  C
  C131     1.0000 0.11866  0.88134  0.46030  Biso   1.000  C
  C132     1.0000 0.33046  0.24496  0.50000  Biso   1.000  C
  C133     1.0000 0.50000  0.66954  0.24496  Biso   1.000  C
  C134     1.0000 0.46120  0.84409  0.84409  Biso   1.000  C
  C135     1.0000 0.46030  0.88134  0.11866  Biso   1.000  C
  C136     1.0000 0.50000  0.75504  0.33046  Biso   1.000  C
  C137     1.0000 0.74317  0.80004  0.50000  Biso   1.000  C
  C138     1.0000 0.33046  0.50000  0.24496  Biso   1.000  C
  C139     1.0000 0.20265  0.50000  0.59069  Biso   1.000  C
  C140     1.0000 0.50000  0.15742  0.71789  Biso   1.000  C
  C141     1.0000 0.79735  0.40931  0.50000  Biso   1.000  C
  C142     1.0000 0.75523  0.28092  0.50000  Biso   1.000  C
  C143     1.0000 0.82776  0.50000  0.17224  Biso   1.000  C
  C144     1.0000 0.64400  0.50000  0.20259  Biso   1.000  C
  C145     1.0000 0.11866  0.53970  0.88134  Biso   1.000  C
  C146     1.0000 0.15853  0.33142  0.50000  Biso   1.000  C
  C147     1.0000 0.24496  0.33046  0.50000  Biso   1.000  C
  C148     1.0000 0.50000  0.20265  0.59069  Biso   1.000  C
  C149     1.0000 0.28092  0.50000  0.24477  Biso   1.000  C
  C150     1.0000 0.20259  0.35600  0.50000  Biso   1.000  C
  C151     1.0000 0.50000  0.19996  0.25683  Biso   1.000  C
  C152     1.0000 0.88134  0.88134  0.46030  Biso   1.000  C
  C153     1.0000 0.79741  0.35600  0.50000  Biso   1.000  C
  C154     1.0000 0.10148  0.50000  0.89852  Biso   1.000  C
  C155     1.0000 0.50000  0.75523  0.71908  Biso   1.000  C
  C156     1.0000 0.66858  0.50000  0.84147  Biso   1.000  C
  C157     1.0000 0.50000  0.17224  0.17224  Biso   1.000  C
  C158     1.0000 0.15591  0.46120  0.84409  Biso   1.000  C
  C159     1.0000 0.50000  0.06376  0.06376  Biso   1.000  C
  C160     1.0000 0.89852  0.50000  0.89852  Biso   1.000  C
  C161     1.0000 0.24477  0.50000  0.28092  Biso   1.000  C
  C162     1.0000 0.93624  0.50000  0.06376  Biso   1.000  C
  C163     1.0000 0.75504  0.66954  0.50000  Biso   1.000  C
  C164     1.0000 0.24477  0.28092  0.50000  Biso   1.000  C
  C165     1.0000 0.59069  0.79735  0.50000  Biso   1.000  C
  C166     1.0000 0.15853  0.50000  0.33142  Biso   1.000  C
  C167     1.0000 0.15591  0.15591  0.46120  Biso   1.000  C
  C168     1.0000 0.66954  0.75504  0.50000  Biso   1.000  C
  C169     1.0000 0.93624  0.06376  0.50000  Biso   1.000  C
  C170     1.0000 0.79741  0.50000  0.35600  Biso   1.000  C
  C171     1.0000 0.53970  0.88134  0.88134  Biso   1.000  C
  C172     1.0000 0.50000  0.15742  0.28211  Biso   1.000  C
  C173     1.0000 0.10148  0.50000  0.10148  Biso   1.000  C
  C174     1.0000 0.50000  0.64400  0.79741  Biso   1.000  C
  C175     1.0000 0.66954  0.50000  0.75504  Biso   1.000  C
  C176     1.0000 0.53880  0.84409  0.15591  Biso   1.000  C
  C177     1.0000 0.50000  0.59069  0.20265  Biso   1.000  C
  C178     1.0000 0.20265  0.59069  0.50000  Biso   1.000  C
  C179     1.0000 0.50000  0.20259  0.35600  Biso   1.000  C
  C180     1.0000 0.06376  0.50000  0.06376  Biso   1.000  C
  C181     1.0000 0.50000  0.10148  0.10148  Biso   1.000  C
  C182     1.0000 0.50000  0.93624  0.06376  Biso   1.000  C
  C183     1.0000 0.82776  0.50000  0.82776  Biso   1.000  C
  C184     1.0000 0.50000  0.25683  0.19996  Biso   1.000  C
  C185     1.0000 0.50000  0.20259  0.64400  Biso   1.000  C
  C186     1.0000 0.64400  0.79741  0.50000  Biso   1.000  C
  C187     1.0000 0.06376  0.06376  0.50000  Biso   1.000  C
  C188     1.0000 0.11866  0.53970  0.11866  Biso   1.000  C
  C189     1.0000 0.66858  0.50000  0.15853  Biso   1.000  C
  C190     1.0000 0.33046  0.50000  0.75504  Biso   1.000  C
  C191     1.0000 0.24496  0.50000  0.33046  Biso   1.000  C
  C192     1.0000 0.50000  0.80004  0.74317  Biso   1.000  C
  C193     1.0000 0.75504  0.50000  0.66954  Biso   1.000  C
  C194     1.0000 0.79741  0.64400  0.50000  Biso   1.000  C
  C195     1.0000 0.50000  0.24496  0.33046  Biso   1.000  C
  C196     1.0000 0.88134  0.46030  0.88134  Biso   1.000  C
  C197     1.0000 0.50000  0.84258  0.71789  Biso   1.000  C
  C198     1.0000 0.75504  0.50000  0.33046  Biso   1.000  C
  C199     1.0000 0.25683  0.19996  0.50000  Biso   1.000  C
  C200     1.0000 0.82776  0.82776  0.50000  Biso   1.000  C
  C201     1.0000 0.50000  0.19996  0.74317  Biso   1.000  C
  C202     1.0000 0.79735  0.50000  0.59069  Biso   1.000  C
  C203     1.0000 0.66858  0.84147  0.50000  Biso   1.000  C
  C204     1.0000 0.06376  0.50000  0.93624  Biso   1.000  C
  C205     1.0000 0.93624  0.50000  0.93624  Biso   1.000  C
  C206     1.0000 0.53880  0.15591  0.84409  Biso   1.000  C
  C207     1.0000 0.50000  0.75504  0.66954  Biso   1.000  C
  C208     1.0000 0.50000  0.40931  0.20265  Biso   1.000  C
  C209     1.0000 0.50000  0.74317  0.19996  Biso   1.000  C
  C210     1.0000 0.11866  0.46030  0.11866  Biso   1.000  C
  C211     1.0000 0.79735  0.50000  0.40931  Biso   1.000  C
  C212     1.0000 0.50000  0.84147  0.66858  Biso   1.000  C
  C213     1.0000 0.35600  0.20259  0.50000  Biso   1.000  C
  C214     1.0000 0.80004  0.50000  0.25683  Biso   1.000  C
  C215     1.0000 0.50000  0.79741  0.35600  Biso   1.000  C
  C216     1.0000 0.50000  0.28092  0.75523  Biso   1.000  C
  C217     1.0000 0.82776  0.17224  0.50000  Biso   1.000  C
  C218     1.0000 0.79735  0.59069  0.50000  Biso   1.000  C
  C219     1.0000 0.15742  0.28211  0.50000  Biso   1.000  C
  C220     1.0000 0.88134  0.53970  0.11866  Biso   1.000  C
  C221     1.0000 0.15591  0.84409  0.46120  Biso   1.000  C
  C222     1.0000 0.50000  0.71908  0.24477  Biso   1.000  C
  C223     1.0000 0.53880  0.84409  0.84409  Biso   1.000  C
  C224     1.0000 0.89852  0.89852  0.50000  Biso   1.000  C
  C225     1.0000 0.74317  0.19996  0.50000  Biso   1.000  C
  C226     1.0000 0.33142  0.50000  0.84147  Biso   1.000  C
  C227     1.0000 0.50000  0.82776  0.82776  Biso   1.000  C
  C228     1.0000 0.84409  0.15591  0.53880  Biso   1.000  C
  C229     1.0000 0.46120  0.84409  0.15591  Biso   1.000  C
  C230     1.0000 0.75504  0.33046  0.50000  Biso   1.000  C
  C231     1.0000 0.89852  0.50000  0.10148  Biso   1.000  C
  C232     1.0000 0.15853  0.50000  0.66858  Biso   1.000  C
  C233     1.0000 0.50000  0.79735  0.59069  Biso   1.000  C
  C234     1.0000 0.24477  0.71908  0.50000  Biso   1.000  C
  C235     1.0000 0.64400  0.20259  0.50000  Biso   1.000  C
  C236     1.0000 0.50000  0.10148  0.89852  Biso   1.000  C
  C237     1.0000 0.50000  0.28211  0.15742  Biso   1.000  C
  C238     1.0000 0.40931  0.79735  0.50000  Biso   1.000  C
  C239     1.0000 0.71908  0.75523  0.50000  Biso   1.000  C
  C240     1.0000 0.84147  0.33142  0.50000  Biso   1.000  C
  C241     1.0000 0.28092  0.75523  0.50000  Biso   1.000  C
  C242     1.0000 0.28211  0.50000  0.15742  Biso   1.000  C
  C243     1.0000 0.19996  0.25683  0.50000  Biso   1.000  C
  C244     1.0000 0.50000  0.89852  0.10148  Biso   1.000  C
  C245     1.0000 0.15591  0.15591  0.53880  Biso   1.000  C
  C246     1.0000 0.50000  0.59069  0.79735  Biso   1.000  C
  C247     1.0000 0.64400  0.50000  0.79741  Biso   1.000  C
  C248     1.0000 0.17224  0.17224  0.50000  Biso   1.000  C
  C249     1.0000 0.24496  0.50000  0.66954  Biso   1.000  C
  C250     1.0000 0.71908  0.50000  0.75523  Biso   1.000  C
  C251     1.0000 0.25683  0.50000  0.19996  Biso   1.000  C
  C252     1.0000 0.50000  0.35600  0.20259  Biso   1.000  C
  N1       1.0000 0.50000  0.20824  0.20824  Biso   1.000  N
  N2       1.0000 0.20824  0.79176  0.50000  Biso   1.000  N
  N3       1.0000 0.20824  0.50000  0.20824  Biso   1.000  N
  N4       1.0000 0.79176  0.50000  0.79176  Biso   1.000  N
  N5       1.0000 0.50000  0.79176  0.20824  Biso   1.000  N
  N6       1.0000 0.79176  0.20824  0.50000  Biso   1.000  N
  N7       1.0000 0.20824  0.50000  0.79176  Biso   1.000  N
  N8       1.0000 0.50000  0.79176  0.79176  Biso   1.000  N
  N9       1.0000 0.20824  0.20824  0.50000  Biso   1.000  N
  N10      1.0000 0.79176  0.79176  0.50000  Biso   1.000  N
  N11      1.0000 0.50000  0.20824  0.79176  Biso   1.000  N
  N12      1.0000 0.79176  0.50000  0.20824  Biso   1.000  N
  O1       1.0000 0.50000  0.24268  0.43002  Biso   1.000  O
  O2       1.0000 0.24268  0.50000  0.43002  Biso   1.000  O
  O3       1.0000 0.83727  0.43028  0.50000  Biso   1.000  O
  O4       1.0000 0.50000  0.56998  0.75732  Biso   1.000  O
  O5       1.0000 0.56998  0.50000  0.75732  Biso   1.000  O
  O6       1.0000 0.95003  0.95003  0.46012  Biso   1.000  O
  O7       1.0000 0.04997  0.46012  0.04997  Biso   1.000  O
  O8       1.0000 0.50000  0.24268  0.56998  Biso   1.000  O
  O9       1.0000 0.24268  0.50000  0.56998  Biso   1.000  O
  O10      1.0000 0.56998  0.50000  0.24268  Biso   1.000  O
  O11      1.0000 0.75732  0.56998  0.50000  Biso   1.000  O
  O12      1.0000 0.50000  0.16273  0.56972  Biso   1.000  O
  O13      1.0000 0.56972  0.83727  0.50000  Biso   1.000  O
  O14      1.0000 0.24268  0.56998  0.50000  Biso   1.000  O
  O15      1.0000 0.50000  0.43002  0.24268  Biso   1.000  O
  O16      1.0000 0.83727  0.56972  0.50000  Biso   1.000  O
  O17      1.0000 0.95003  0.04997  0.46012  Biso   1.000  O
  O18      1.0000 0.04997  0.53988  0.04997  Biso   1.000  O
  O19      1.0000 0.50000  0.43028  0.83727  Biso   1.000  O
  O20      1.0000 0.43002  0.50000  0.75732  Biso   1.000  O
  O21      1.0000 0.95003  0.04997  0.53988  Biso   1.000  O
  O22      1.0000 0.16273  0.50000  0.43028  Biso   1.000  O
  O23      1.0000 0.56998  0.24268  0.50000  Biso   1.000  O
  O24      1.0000 0.95003  0.46012  0.95003  Biso   1.000  O
  O25      1.0000 0.04997  0.46012  0.95003  Biso   1.000  O
  O26      1.0000 0.43028  0.16273  0.50000  Biso   1.000  O
  O27      1.0000 0.53988  0.95003  0.04997  Biso   1.000  O
  O28      1.0000 0.50000  0.56972  0.16273  Biso   1.000  O
  O29      1.0000 0.95003  0.46012  0.04997  Biso   1.000  O
  O30      1.0000 0.53988  0.95003  0.95003  Biso   1.000  O
  O31      1.0000 0.04997  0.04997  0.46012  Biso   1.000  O
  O32      1.0000 0.50000  0.75732  0.43002  Biso   1.000  O
  O33      1.0000 0.46012  0.04997  0.95003  Biso   1.000  O
  O34      1.0000 0.04997  0.95003  0.46012  Biso   1.000  O
  O35      1.0000 0.50000  0.56998  0.24268  Biso   1.000  O
  O36      1.0000 0.50000  0.43002  0.75732  Biso   1.000  O
  O37      1.0000 0.16273  0.56972  0.50000  Biso   1.000  O
  O38      1.0000 0.50000  0.75732  0.56998  Biso   1.000  O
  O39      1.0000 0.43028  0.50000  0.16273  Biso   1.000  O
  O40      1.0000 0.95003  0.95003  0.53988  Biso   1.000  O
  O41      1.0000 0.04997  0.95003  0.53988  Biso   1.000  O
  O42      1.0000 0.83727  0.50000  0.56972  Biso   1.000  O
  O43      1.0000 0.75732  0.50000  0.43002  Biso   1.000  O
  O44      1.0000 0.43002  0.50000  0.24268  Biso   1.000  O
  O45      1.0000 0.56972  0.50000  0.83727  Biso   1.000  O
  O46      1.0000 0.43028  0.83727  0.50000  Biso   1.000  O
  O47      1.0000 0.50000  0.83727  0.43028  Biso   1.000  O
  O48      1.0000 0.16273  0.43028  0.50000  Biso   1.000  O
  O49      1.0000 0.75732  0.50000  0.56998  Biso   1.000  O
  O50      1.0000 0.46012  0.04997  0.04997  Biso   1.000  O
  O51      1.0000 0.56972  0.50000  0.16273  Biso   1.000  O
  O52      1.0000 0.50000  0.16273  0.43028  Biso   1.000  O
  O53      1.0000 0.50000  0.56972  0.83727  Biso   1.000  O
  O54      1.0000 0.24268  0.43002  0.50000  Biso   1.000  O
  O55      1.0000 0.04997  0.04997  0.53988  Biso   1.000  O
  O56      1.0000 0.43002  0.24268  0.50000  Biso   1.000  O
  O57      1.0000 0.43002  0.75732  0.50000  Biso   1.000  O
  O58      1.0000 0.50000  0.83727  0.56972  Biso   1.000  O
  O59      1.0000 0.83727  0.50000  0.43028  Biso   1.000  O
  O60      1.0000 0.53988  0.04997  0.04997  Biso   1.000  O
  O61      1.0000 0.50000  0.43028  0.16273  Biso   1.000  O
  O62      1.0000 0.46012  0.95003  0.95003  Biso   1.000  O
  O63      1.0000 0.95003  0.53988  0.04997  Biso   1.000  O
  O64      1.0000 0.46012  0.95003  0.04997  Biso   1.000  O
  O65      1.0000 0.43028  0.50000  0.83727  Biso   1.000  O
  O66      1.0000 0.56998  0.75732  0.50000  Biso   1.000  O
  O67      1.0000 0.56972  0.16273  0.50000  Biso   1.000  O
  O68      1.0000 0.95003  0.53988  0.95003  Biso   1.000  O
  O69      1.0000 0.53988  0.04997  0.95003  Biso   1.000  O
  O70      1.0000 0.04997  0.53988  0.95003  Biso   1.000  O
  O71      1.0000 0.75732  0.43002  0.50000  Biso   1.000  O
  O72      1.0000 0.16273  0.50000  0.56972  Biso   1.000  O
  Cu19     1.0000 0.50251  0.03589  0.50251  Biso   1.000  Cu
  Cu20     1.0000 0.65787  0.98833  0.00251  Biso   1.000  Cu
  Cu21     1.0000 0.00251  0.98833  0.65787  Biso   1.000  Cu
  Cu22     1.0000 0.00251  0.98833  0.75230  Biso   1.000  Cu
  Cu23     1.0000 0.00251  0.98833  0.34715  Biso   1.000  Cu
  Cu24     1.0000 0.50251  0.48833  0.05007  Biso   1.000  Cu
  Cu25     1.0000 0.00251  0.73812  0.00251  Biso   1.000  Cu
  Cu26     1.0000 0.00251  0.98833  0.25272  Biso   1.000  Cu
  Cu27     1.0000 0.00251  0.23854  0.00251  Biso   1.000  Cu
  Cu28     1.0000 0.95495  0.48833  0.50251  Biso   1.000  Cu
  Cu29     1.0000 0.00251  0.33297  0.00251  Biso   1.000  Cu
  Cu30     1.0000 0.75230  0.98833  0.00251  Biso   1.000  Cu
  Cu31     1.0000 0.00251  0.64369  0.00251  Biso   1.000  Cu
  Cu32     1.0000 0.34715  0.98833  0.00251  Biso   1.000  Cu
  Cu33     1.0000 0.05007  0.48833  0.50251  Biso   1.000  Cu
  Cu34     1.0000 0.50251  0.48833  0.95495  Biso   1.000  Cu
  Cu35     1.0000 0.50251  0.94077  0.50251  Biso   1.000  Cu
  Cu36     1.0000 0.25272  0.98833  0.00251  Biso   1.000  Cu
  H121     1.0000 0.37431  0.75423  0.00251  Biso   1.000  H
  H122     1.0000 0.60981  0.05733  0.39521  Biso   1.000  H
  H123     1.0000 0.37431  0.22243  0.00251  Biso   1.000  H
  H124     1.0000 0.00251  0.83513  0.77661  Biso   1.000  H
  H125     1.0000 0.37431  0.98833  0.76841  Biso   1.000  H
  H126     1.0000 0.07021  0.65613  0.33471  Biso   1.000  H
  H127     1.0000 0.93351  0.59563  0.39521  Biso   1.000  H
  H128     1.0000 0.93481  0.65613  0.33471  Biso   1.000  H
  H129     1.0000 0.63241  0.98833  0.15391  Biso   1.000  H
  H130     1.0000 0.39521  0.38103  0.07151  Biso   1.000  H
  H131     1.0000 0.76841  0.61653  0.00251  Biso   1.000  H
  H132     1.0000 0.37261  0.83693  0.00251  Biso   1.000  H
  H133     1.0000 0.63071  0.98833  0.23661  Biso   1.000  H
  H134     1.0000 0.07151  0.59563  0.60981  Biso   1.000  H
  H135     1.0000 0.00251  0.61653  0.76841  Biso   1.000  H
  H136     1.0000 0.15391  0.98833  0.37261  Biso   1.000  H
  H137     1.0000 0.84931  0.98833  0.22841  Biso   1.000  H
  H138     1.0000 0.93481  0.32053  0.67031  Biso   1.000  H
  H139     1.0000 0.00251  0.13973  0.63241  Biso   1.000  H
  H140     1.0000 0.23661  0.36013  0.00251  Biso   1.000  H
  H141     1.0000 0.33471  0.92063  0.67031  Biso   1.000  H
  H142     1.0000 0.77661  0.98833  0.15571  Biso   1.000  H
  H143     1.0000 0.15571  0.98833  0.22841  Biso   1.000  H
  H144     1.0000 0.00251  0.21423  0.15571  Biso   1.000  H
  H145     1.0000 0.00251  0.21423  0.84931  Biso   1.000  H
  H146     1.0000 0.00251  0.83693  0.37261  Biso   1.000  H
  H147     1.0000 0.00251  0.61823  0.85111  Biso   1.000  H
  H148     1.0000 0.63071  0.22243  0.00251  Biso   1.000  H
  H149     1.0000 0.39521  0.59563  0.07151  Biso   1.000  H
  H150     1.0000 0.22841  0.98833  0.15571  Biso   1.000  H
  H151     1.0000 0.60981  0.59563  0.07151  Biso   1.000  H
  H152     1.0000 0.15571  0.76243  0.00251  Biso   1.000  H
  H153     1.0000 0.15571  0.21423  0.00251  Biso   1.000  H
  H154     1.0000 0.07021  0.32053  0.67031  Biso   1.000  H
  H155     1.0000 0.00251  0.75423  0.37431  Biso   1.000  H
  H156     1.0000 0.00251  0.61823  0.15391  Biso   1.000  H
  H157     1.0000 0.33471  0.65613  0.93481  Biso   1.000  H
  H158     1.0000 0.93481  0.65613  0.67031  Biso   1.000  H
  H159     1.0000 0.00251  0.22243  0.63071  Biso   1.000  H
  H160     1.0000 0.67031  0.65613  0.93481  Biso   1.000  H
  H161     1.0000 0.23661  0.61653  0.00251  Biso   1.000  H
  H162     1.0000 0.00251  0.76243  0.15571  Biso   1.000  H
  H163     1.0000 0.84931  0.76243  0.00251  Biso   1.000  H
  H164     1.0000 0.67031  0.05603  0.33471  Biso   1.000  H
  H165     1.0000 0.93351  0.38103  0.60981  Biso   1.000  H
  H166     1.0000 0.33471  0.32053  0.07021  Biso   1.000  H
  H167     1.0000 0.07021  0.65613  0.67031  Biso   1.000  H
  H168     1.0000 0.77661  0.83513  0.00251  Biso   1.000  H
  H169     1.0000 0.39521  0.59563  0.93351  Biso   1.000  H
  H170     1.0000 0.00251  0.13973  0.37261  Biso   1.000  H
  H171     1.0000 0.93351  0.38103  0.39521  Biso   1.000  H
  H172     1.0000 0.33471  0.05603  0.33471  Biso   1.000  H
  H173     1.0000 0.07151  0.38103  0.60981  Biso   1.000  H
  H174     1.0000 0.00251  0.14153  0.22841  Biso   1.000  H
  H175     1.0000 0.76841  0.98833  0.63071  Biso   1.000  H
  H176     1.0000 0.84931  0.98833  0.77661  Biso   1.000  H
  H177     1.0000 0.07151  0.38103  0.39521  Biso   1.000  H
  H178     1.0000 0.77661  0.98833  0.84931  Biso   1.000  H
  H179     1.0000 0.63241  0.83693  0.00251  Biso   1.000  H
  H180     1.0000 0.63241  0.98833  0.85111  Biso   1.000  H
  H181     1.0000 0.00251  0.76243  0.84931  Biso   1.000  H
  H182     1.0000 0.60981  0.38103  0.93351  Biso   1.000  H
  H183     1.0000 0.85111  0.61823  0.00251  Biso   1.000  H
  H184     1.0000 0.67031  0.05603  0.67031  Biso   1.000  H
  H185     1.0000 0.60981  0.05733  0.60981  Biso   1.000  H
  H186     1.0000 0.39521  0.91933  0.60981  Biso   1.000  H
  H187     1.0000 0.60981  0.91933  0.60981  Biso   1.000  H
  H188     1.0000 0.15391  0.98833  0.63241  Biso   1.000  H
  H189     1.0000 0.00251  0.75423  0.63071  Biso   1.000  H
  H190     1.0000 0.00251  0.35843  0.85111  Biso   1.000  H
  H191     1.0000 0.00251  0.35843  0.15391  Biso   1.000  H
  H192     1.0000 0.33471  0.65613  0.07021  Biso   1.000  H
  H193     1.0000 0.39521  0.05733  0.60981  Biso   1.000  H
  H194     1.0000 0.37261  0.98833  0.85111  Biso   1.000  H
  H195     1.0000 0.76841  0.98833  0.37431  Biso   1.000  H
  H196     1.0000 0.84931  0.21423  0.00251  Biso   1.000  H
  H197     1.0000 0.22841  0.83513  0.00251  Biso   1.000  H
  H198     1.0000 0.00251  0.61653  0.23661  Biso   1.000  H
  H199     1.0000 0.67031  0.92063  0.67031  Biso   1.000  H
  H200     1.0000 0.63071  0.98833  0.76841  Biso   1.000  H
  H201     1.0000 0.00251  0.83513  0.22841  Biso   1.000  H
  H202     1.0000 0.60981  0.91933  0.39521  Biso   1.000  H
  H203     1.0000 0.00251  0.83693  0.63241  Biso   1.000  H
  H204     1.0000 0.33471  0.05603  0.67031  Biso   1.000  H
  H205     1.0000 0.15391  0.35843  0.00251  Biso   1.000  H
  H206     1.0000 0.37261  0.13973  0.00251  Biso   1.000  H
  H207     1.0000 0.39521  0.91933  0.39521  Biso   1.000  H
  H208     1.0000 0.33471  0.32053  0.93481  Biso   1.000  H
  H209     1.0000 0.15571  0.98833  0.77661  Biso   1.000  H
  H210     1.0000 0.22841  0.98833  0.84931  Biso   1.000  H
  H211     1.0000 0.76841  0.36013  0.00251  Biso   1.000  H
  H212     1.0000 0.00251  0.36013  0.23661  Biso   1.000  H
  H213     1.0000 0.00251  0.22243  0.37431  Biso   1.000  H
  H214     1.0000 0.07151  0.59563  0.39521  Biso   1.000  H
  H215     1.0000 0.85111  0.98833  0.37261  Biso   1.000  H
  H216     1.0000 0.63071  0.75423  0.00251  Biso   1.000  H
  H217     1.0000 0.67031  0.65613  0.07021  Biso   1.000  H
  H218     1.0000 0.07021  0.32053  0.33471  Biso   1.000  H
  H219     1.0000 0.23661  0.98833  0.37431  Biso   1.000  H
  H220     1.0000 0.77661  0.14153  0.00251  Biso   1.000  H
  H221     1.0000 0.23661  0.98833  0.63071  Biso   1.000  H
  H222     1.0000 0.93481  0.32053  0.33471  Biso   1.000  H
  H223     1.0000 0.15391  0.61823  0.00251  Biso   1.000  H
  H224     1.0000 0.67031  0.32053  0.07021  Biso   1.000  H
  H225     1.0000 0.60981  0.59563  0.93351  Biso   1.000  H
  H226     1.0000 0.00251  0.14153  0.77661  Biso   1.000  H
  H227     1.0000 0.63241  0.13973  0.00251  Biso   1.000  H
  H228     1.0000 0.85111  0.98833  0.63241  Biso   1.000  H
  H229     1.0000 0.85111  0.35843  0.00251  Biso   1.000  H
  H230     1.0000 0.22841  0.14153  0.00251  Biso   1.000  H
  H231     1.0000 0.60981  0.38103  0.07151  Biso   1.000  H
  H232     1.0000 0.37261  0.98833  0.15391  Biso   1.000  H
  H233     1.0000 0.39521  0.38103  0.93351  Biso   1.000  H
  H234     1.0000 0.00251  0.36013  0.76841  Biso   1.000  H
  H235     1.0000 0.93351  0.59563  0.60981  Biso   1.000  H
  H236     1.0000 0.67031  0.92063  0.33471  Biso   1.000  H
  H237     1.0000 0.39521  0.05733  0.39521  Biso   1.000  H
  H238     1.0000 0.33471  0.92063  0.33471  Biso   1.000  H
  H239     1.0000 0.37431  0.98833  0.23661  Biso   1.000  H
  H240     1.0000 0.67031  0.32053  0.93481  Biso   1.000  H
  C253     1.0000 0.22159  0.98833  0.74728  Biso   1.000  C
  C254     1.0000 0.70247  0.23150  0.00251  Biso   1.000  C
  C255     1.0000 0.65993  0.77044  0.00251  Biso   1.000  C
  C256     1.0000 0.00251  0.58981  0.40103  Biso   1.000  C
  C257     1.0000 0.34660  0.94953  0.34660  Biso   1.000  C
  C258     1.0000 0.70516  0.07902  0.00251  Biso   1.000  C
  C259     1.0000 0.00251  0.24356  0.22159  Biso   1.000  C
  C260     1.0000 0.00251  0.23150  0.70247  Biso   1.000  C
  C261     1.0000 0.00251  0.38685  0.40103  Biso   1.000  C
  C262     1.0000 0.60399  0.58981  0.00251  Biso   1.000  C
  C263     1.0000 0.34398  0.81975  0.00251  Biso   1.000  C
  C264     1.0000 0.22040  0.98833  0.65993  Biso   1.000  C
  C265     1.0000 0.38385  0.02803  0.62117  Biso   1.000  C
  C266     1.0000 0.24568  0.68829  0.00251  Biso   1.000  C
  C267     1.0000 0.66104  0.15691  0.00251  Biso   1.000  C
  C268     1.0000 0.70247  0.74516  0.00251  Biso   1.000  C
  C269     1.0000 0.29986  0.98833  0.09320  Biso   1.000  C
  C270     1.0000 0.65993  0.98833  0.22040  Biso   1.000  C
  C271     1.0000 0.14651  0.98833  0.29992  Biso   1.000  C
  C272     1.0000 0.34660  0.33242  0.96371  Biso   1.000  C
  C273     1.0000 0.22040  0.64575  0.00251  Biso   1.000  C
  C274     1.0000 0.74728  0.76925  0.00251  Biso   1.000  C
  C275     1.0000 0.00251  0.24356  0.78343  Biso   1.000  C
  C276     1.0000 0.34660  0.33242  0.04131  Biso   1.000  C
  C277     1.0000 0.38385  0.36967  0.04221  Biso   1.000  C
  C278     1.0000 0.65842  0.94953  0.34660  Biso   1.000  C
  C279     1.0000 0.00251  0.69092  0.14651  Biso   1.000  C
  C280     1.0000 0.34509  0.77044  0.00251  Biso   1.000  C
  C281     1.0000 0.96281  0.60699  0.62117  Biso   1.000  C
  C282     1.0000 0.74728  0.98833  0.22159  Biso   1.000  C
  C283     1.0000 0.96281  0.36967  0.38385  Biso   1.000  C
  C284     1.0000 0.00251  0.81975  0.66104  Biso   1.000  C
  C285     1.0000 0.17109  0.98833  0.66104  Biso   1.000  C
  C286     1.0000 0.09320  0.98833  0.29986  Biso   1.000  C
  C287     1.0000 0.00251  0.77044  0.34509  Biso   1.000  C
  C288     1.0000 0.00251  0.64575  0.78462  Biso   1.000  C
  C289     1.0000 0.83393  0.98833  0.66104  Biso   1.000  C
  C290     1.0000 0.00251  0.74516  0.70247  Biso   1.000  C
  C291     1.0000 0.00251  0.84433  0.29992  Biso   1.000  C
  C292     1.0000 0.34660  0.02713  0.65842  Biso   1.000  C
  C293     1.0000 0.00251  0.20622  0.65993  Biso   1.000  C
  C294     1.0000 0.25755  0.15787  0.00251  Biso   1.000  C
  C295     1.0000 0.00251  0.76925  0.74728  Biso   1.000  C
  C296     1.0000 0.00251  0.81879  0.25755  Biso   1.000  C
  C297     1.0000 0.70247  0.98833  0.24568  Biso   1.000  C
  C298     1.0000 0.70247  0.98833  0.75934  Biso   1.000  C
  C299     1.0000 0.85851  0.98833  0.70510  Biso   1.000  C
  C300     1.0000 0.29992  0.98833  0.14651  Biso   1.000  C
  C301     1.0000 0.83297  0.24337  0.00251  Biso   1.000  C
  C302     1.0000 0.70510  0.13233  0.00251  Biso   1.000  C
  C303     1.0000 0.65842  0.33242  0.04131  Biso   1.000  C
  C304     1.0000 0.67475  0.31609  0.00251  Biso   1.000  C
  C305     1.0000 0.00251  0.74516  0.30255  Biso   1.000  C
  C306     1.0000 0.96281  0.60699  0.38385  Biso   1.000  C
  C307     1.0000 0.04221  0.36967  0.38385  Biso   1.000  C
  C308     1.0000 0.34660  0.94953  0.65842  Biso   1.000  C
  C309     1.0000 0.00251  0.64575  0.22040  Biso   1.000  C
  C310     1.0000 0.04131  0.33242  0.65842  Biso   1.000  C
  C311     1.0000 0.78462  0.98833  0.65993  Biso   1.000  C
  C312     1.0000 0.70516  0.98833  0.09320  Biso   1.000  C
  C313     1.0000 0.04221  0.36967  0.62117  Biso   1.000  C
  C314     1.0000 0.00251  0.32980  0.83393  Biso   1.000  C
  C315     1.0000 0.56627  0.42457  0.00251  Biso   1.000  C
  C316     1.0000 0.56627  0.55209  0.00251  Biso   1.000  C
  C317     1.0000 0.78343  0.98833  0.25774  Biso   1.000  C
  C318     1.0000 0.17109  0.64686  0.00251  Biso   1.000  C
  C319     1.0000 0.96371  0.64424  0.65842  Biso   1.000  C
  C320     1.0000 0.65842  0.02713  0.65842  Biso   1.000  C
  C321     1.0000 0.34660  0.02713  0.34660  Biso   1.000  C
  C322     1.0000 0.00251  0.68829  0.24568  Biso   1.000  C
  C323     1.0000 0.09320  0.28568  0.00251  Biso   1.000  C
  C324     1.0000 0.85851  0.69092  0.00251  Biso   1.000  C
  C325     1.0000 0.62117  0.94863  0.62117  Biso   1.000  C
  C326     1.0000 0.00251  0.73329  0.17205  Biso   1.000  C
  C327     1.0000 0.65993  0.98833  0.78462  Biso   1.000  C
  C328     1.0000 0.00251  0.28568  0.91182  Biso   1.000  C
  C329     1.0000 0.17109  0.32980  0.00251  Biso   1.000  C
  C330     1.0000 0.34398  0.15691  0.00251  Biso   1.000  C
  C331     1.0000 0.33027  0.98833  0.33027  Biso   1.000  C
  C332     1.0000 0.96281  0.36967  0.62117  Biso   1.000  C
  C333     1.0000 0.34509  0.98833  0.78462  Biso   1.000  C
  C334     1.0000 0.00251  0.32980  0.17109  Biso   1.000  C
  C335     1.0000 0.25774  0.98833  0.78343  Biso   1.000  C
  C336     1.0000 0.65842  0.94953  0.65842  Biso   1.000  C
  C337     1.0000 0.00251  0.38685  0.60399  Biso   1.000  C
  C338     1.0000 0.78462  0.98833  0.34509  Biso   1.000  C
  C339     1.0000 0.75934  0.98833  0.70247  Biso   1.000  C
  C340     1.0000 0.83393  0.32980  0.00251  Biso   1.000  C
  C341     1.0000 0.29992  0.84433  0.00251  Biso   1.000  C
  C342     1.0000 0.70516  0.98833  0.91182  Biso   1.000  C
  C343     1.0000 0.00251  0.07902  0.29986  Biso   1.000  C
  C344     1.0000 0.67475  0.98833  0.33027  Biso   1.000  C
  C345     1.0000 0.00251  0.64686  0.17109  Biso   1.000  C
  C346     1.0000 0.22159  0.24356  0.00251  Biso   1.000  C
  C347     1.0000 0.38385  0.36967  0.96281  Biso   1.000  C
  C348     1.0000 0.00251  0.33091  0.22040  Biso   1.000  C
  C349     1.0000 0.00251  0.81975  0.34398  Biso   1.000  C
  C350     1.0000 0.78343  0.98833  0.74728  Biso   1.000  C
  C351     1.0000 0.70510  0.98833  0.14651  Biso   1.000  C
  C352     1.0000 0.96371  0.64424  0.34660  Biso   1.000  C
  C353     1.0000 0.04131  0.64424  0.65842  Biso   1.000  C
  C354     1.0000 0.85851  0.98833  0.29992  Biso   1.000  C
  C355     1.0000 0.00251  0.77044  0.65993  Biso   1.000  C
  C356     1.0000 0.75934  0.98833  0.30255  Biso   1.000  C
  C357     1.0000 0.00251  0.55209  0.56627  Biso   1.000  C
  C358     1.0000 0.62117  0.60699  0.04221  Biso   1.000  C
  C359     1.0000 0.78343  0.24356  0.00251  Biso   1.000  C
  C360     1.0000 0.00251  0.24337  0.83297  Biso   1.000  C
  C361     1.0000 0.22159  0.73310  0.00251  Biso   1.000  C
  C362     1.0000 0.25755  0.98833  0.83297  Biso   1.000  C
  C363     1.0000 0.30255  0.98833  0.75934  Biso   1.000  C
  C364     1.0000 0.00251  0.28568  0.09320  Biso   1.000  C
  C365     1.0000 0.24568  0.98833  0.30255  Biso   1.000  C
  C366     1.0000 0.66104  0.81975  0.00251  Biso   1.000  C
  C367     1.0000 0.00251  0.66057  0.33027  Biso   1.000  C
  C368     1.0000 0.29986  0.98833  0.91182  Biso   1.000  C
  C369     1.0000 0.09320  0.69098  0.00251  Biso   1.000  C
  C370     1.0000 0.33027  0.66057  0.00251  Biso   1.000  C
  C371     1.0000 0.34398  0.98833  0.17109  Biso   1.000  C
  C372     1.0000 0.00251  0.33091  0.78462  Biso   1.000  C
  C373     1.0000 0.25774  0.20741  0.00251  Biso   1.000  C
  C374     1.0000 0.62117  0.36967  0.04221  Biso   1.000  C
  C375     1.0000 0.22040  0.98833  0.34509  Biso   1.000  C
  C376     1.0000 0.38385  0.60699  0.96281  Biso   1.000  C
  C377     1.0000 0.00251  0.55209  0.43875  Biso   1.000  C
  C378     1.0000 0.62117  0.02803  0.38385  Biso   1.000  C
  C379     1.0000 0.62117  0.36967  0.96281  Biso   1.000  C
  C380     1.0000 0.74747  0.81879  0.00251  Biso   1.000  C
  C381     1.0000 0.74747  0.15787  0.00251  Biso   1.000  C
  C382     1.0000 0.65993  0.20622  0.00251  Biso   1.000  C
  C383     1.0000 0.04221  0.60699  0.38385  Biso   1.000  C
  C384     1.0000 0.00251  0.24337  0.17205  Biso   1.000  C
  C385     1.0000 0.25755  0.81879  0.00251  Biso   1.000  C
  C386     1.0000 0.65842  0.64424  0.04131  Biso   1.000  C
  C387     1.0000 0.38385  0.60699  0.04221  Biso   1.000  C
  C388     1.0000 0.17205  0.73329  0.00251  Biso   1.000  C
  C389     1.0000 0.00251  0.68829  0.75934  Biso   1.000  C
  C390     1.0000 0.25755  0.98833  0.17205  Biso   1.000  C
  C391     1.0000 0.91182  0.98833  0.29986  Biso   1.000  C
  C392     1.0000 0.78462  0.33091  0.00251  Biso   1.000  C
  C393     1.0000 0.00251  0.07902  0.70516  Biso   1.000  C
  C394     1.0000 0.00251  0.20741  0.74728  Biso   1.000  C
  C395     1.0000 0.33027  0.98833  0.67475  Biso   1.000  C
  C396     1.0000 0.29992  0.98833  0.85851  Biso   1.000  C
  C397     1.0000 0.62117  0.94863  0.38385  Biso   1.000  C
  C398     1.0000 0.00251  0.15691  0.34398  Biso   1.000  C
  C399     1.0000 0.00251  0.15787  0.25755  Biso   1.000  C
  C400     1.0000 0.91182  0.28568  0.00251  Biso   1.000  C
  C401     1.0000 0.25774  0.98833  0.22159  Biso   1.000  C
  C402     1.0000 0.00251  0.13233  0.29992  Biso   1.000  C
  C403     1.0000 0.24568  0.28837  0.00251  Biso   1.000  C
  C404     1.0000 0.04221  0.60699  0.62117  Biso   1.000  C
  C405     1.0000 0.00251  0.13233  0.70510  Biso   1.000  C
  C406     1.0000 0.60399  0.98833  0.40103  Biso   1.000  C
  C407     1.0000 0.78343  0.73310  0.00251  Biso   1.000  C
  C408     1.0000 0.66104  0.98833  0.83393  Biso   1.000  C
  C409     1.0000 0.33027  0.31609  0.00251  Biso   1.000  C
  C410     1.0000 0.65842  0.02713  0.34660  Biso   1.000  C
  C411     1.0000 0.43875  0.42457  0.00251  Biso   1.000  C
  C412     1.0000 0.60399  0.98833  0.60399  Biso   1.000  C
  C413     1.0000 0.22159  0.98833  0.25774  Biso   1.000  C
  C414     1.0000 0.43875  0.98833  0.56627  Biso   1.000  C
  C415     1.0000 0.00251  0.81879  0.74747  Biso   1.000  C
  C416     1.0000 0.00251  0.20741  0.25774  Biso   1.000  C
  C417     1.0000 0.00251  0.69098  0.91182  Biso   1.000  C
  C418     1.0000 0.17109  0.98833  0.34398  Biso   1.000  C
  C419     1.0000 0.04131  0.33242  0.34660  Biso   1.000  C
  C420     1.0000 0.00251  0.73329  0.83297  Biso   1.000  C
  C421     1.0000 0.00251  0.42457  0.56627  Biso   1.000  C
  C422     1.0000 0.14651  0.98833  0.70510  Biso   1.000  C
  C423     1.0000 0.62117  0.60699  0.96281  Biso   1.000  C
  C424     1.0000 0.22040  0.33091  0.00251  Biso   1.000  C
  C425     1.0000 0.40103  0.98833  0.40103  Biso   1.000  C
  C426     1.0000 0.70510  0.84433  0.00251  Biso   1.000  C
  C427     1.0000 0.74747  0.98833  0.83297  Biso   1.000  C
  C428     1.0000 0.34660  0.64424  0.96371  Biso   1.000  C
  C429     1.0000 0.29986  0.89764  0.00251  Biso   1.000  C
  C430     1.0000 0.00251  0.89764  0.29986  Biso   1.000  C
  C431     1.0000 0.14651  0.28574  0.00251  Biso   1.000  C
  C432     1.0000 0.43875  0.98833  0.43875  Biso   1.000  C
  C433     1.0000 0.40103  0.38685  0.00251  Biso   1.000  C
  C434     1.0000 0.43875  0.55209  0.00251  Biso   1.000  C
  C435     1.0000 0.67475  0.98833  0.67475  Biso   1.000  C
  C436     1.0000 0.30255  0.23150  0.00251  Biso   1.000  C
  C437     1.0000 0.85851  0.28574  0.00251  Biso   1.000  C
  C438     1.0000 0.00251  0.69092  0.85851  Biso   1.000  C
  C439     1.0000 0.00251  0.42457  0.43875  Biso   1.000  C
  C440     1.0000 0.38385  0.94863  0.38385  Biso   1.000  C
  C441     1.0000 0.34398  0.98833  0.83393  Biso   1.000  C
  C442     1.0000 0.74747  0.98833  0.17205  Biso   1.000  C
  C443     1.0000 0.17205  0.98833  0.25755  Biso   1.000  C
  C444     1.0000 0.75934  0.68829  0.00251  Biso   1.000  C
  C445     1.0000 0.83297  0.98833  0.74747  Biso   1.000  C
  C446     1.0000 0.00251  0.84433  0.70510  Biso   1.000  C
  C447     1.0000 0.17205  0.24337  0.00251  Biso   1.000  C
  C448     1.0000 0.62117  0.02803  0.62117  Biso   1.000  C
  C449     1.0000 0.78462  0.64575  0.00251  Biso   1.000  C
  C450     1.0000 0.17205  0.98833  0.74747  Biso   1.000  C
  C451     1.0000 0.00251  0.28837  0.24568  Biso   1.000  C
  C452     1.0000 0.00251  0.66057  0.67475  Biso   1.000  C
  C453     1.0000 0.75934  0.28837  0.00251  Biso   1.000  C
  C454     1.0000 0.91182  0.98833  0.70516  Biso   1.000  C
  C455     1.0000 0.00251  0.64686  0.83393  Biso   1.000  C
  C456     1.0000 0.56627  0.98833  0.43875  Biso   1.000  C
  C457     1.0000 0.56627  0.98833  0.56627  Biso   1.000  C
  C458     1.0000 0.65842  0.33242  0.96371  Biso   1.000  C
  C459     1.0000 0.83297  0.73329  0.00251  Biso   1.000  C
  C460     1.0000 0.29986  0.07902  0.00251  Biso   1.000  C
  C461     1.0000 0.30255  0.74516  0.00251  Biso   1.000  C
  C462     1.0000 0.38385  0.02803  0.38385  Biso   1.000  C
  C463     1.0000 0.09320  0.98833  0.70516  Biso   1.000  C
  C464     1.0000 0.83393  0.64686  0.00251  Biso   1.000  C
  C465     1.0000 0.00251  0.28574  0.14651  Biso   1.000  C
  C466     1.0000 0.24568  0.98833  0.70247  Biso   1.000  C
  C467     1.0000 0.14651  0.69092  0.00251  Biso   1.000  C
  C468     1.0000 0.74728  0.20741  0.00251  Biso   1.000  C
  C469     1.0000 0.00251  0.31609  0.67475  Biso   1.000  C
  C470     1.0000 0.00251  0.89764  0.70516  Biso   1.000  C
  C471     1.0000 0.00251  0.20622  0.34509  Biso   1.000  C
  C472     1.0000 0.38385  0.94863  0.62117  Biso   1.000  C
  C473     1.0000 0.04131  0.64424  0.34660  Biso   1.000  C
  C474     1.0000 0.25774  0.76925  0.00251  Biso   1.000  C
  C475     1.0000 0.65842  0.64424  0.96371  Biso   1.000  C
  C476     1.0000 0.00251  0.58981  0.60399  Biso   1.000  C
  C477     1.0000 0.00251  0.28837  0.75934  Biso   1.000  C
  C478     1.0000 0.66104  0.98833  0.17109  Biso   1.000  C
  C479     1.0000 0.67475  0.66057  0.00251  Biso   1.000  C
  C480     1.0000 0.96371  0.33242  0.65842  Biso   1.000  C
  C481     1.0000 0.34660  0.64424  0.04131  Biso   1.000  C
  C482     1.0000 0.00251  0.15787  0.74747  Biso   1.000  C
  C483     1.0000 0.40103  0.98833  0.60399  Biso   1.000  C
  C484     1.0000 0.83393  0.98833  0.34398  Biso   1.000  C
  C485     1.0000 0.91182  0.69098  0.00251  Biso   1.000  C
  C486     1.0000 0.00251  0.76925  0.25774  Biso   1.000  C
  C487     1.0000 0.00251  0.28574  0.85851  Biso   1.000  C
  C488     1.0000 0.60399  0.38685  0.00251  Biso   1.000  C
  C489     1.0000 0.34509  0.20622  0.00251  Biso   1.000  C
  C490     1.0000 0.00251  0.69098  0.09320  Biso   1.000  C
  C491     1.0000 0.00251  0.73310  0.78343  Biso   1.000  C
  C492     1.0000 0.00251  0.15691  0.66104  Biso   1.000  C
  C493     1.0000 0.00251  0.73310  0.22159  Biso   1.000  C
  C494     1.0000 0.34509  0.98833  0.22040  Biso   1.000  C
  C495     1.0000 0.00251  0.23150  0.30255  Biso   1.000  C
  C496     1.0000 0.40103  0.58981  0.00251  Biso   1.000  C
  C497     1.0000 0.96371  0.33242  0.34660  Biso   1.000  C
  C498     1.0000 0.70516  0.89764  0.00251  Biso   1.000  C
  C499     1.0000 0.70510  0.98833  0.85851  Biso   1.000  C
  C500     1.0000 0.00251  0.31609  0.33027  Biso   1.000  C
  C501     1.0000 0.83297  0.98833  0.25755  Biso   1.000  C
  C502     1.0000 0.74728  0.98833  0.78343  Biso   1.000  C
  C503     1.0000 0.30255  0.98833  0.24568  Biso   1.000  C
  C504     1.0000 0.29992  0.13233  0.00251  Biso   1.000  C
  N13      1.0000 0.29427  0.28009  0.00251  Biso   1.000  N
  N14      1.0000 0.00251  0.69657  0.29427  Biso   1.000  N
  N15      1.0000 0.29427  0.98833  0.29427  Biso   1.000  N
  N16      1.0000 0.71075  0.98833  0.71075  Biso   1.000  N
  N17      1.0000 0.29427  0.69657  0.00251  Biso   1.000  N
  N18      1.0000 0.00251  0.28009  0.71075  Biso   1.000  N
  N19      1.0000 0.71075  0.98833  0.29427  Biso   1.000  N
  N20      1.0000 0.71075  0.69657  0.00251  Biso   1.000  N
  N21      1.0000 0.00251  0.28009  0.29427  Biso   1.000  N
  N22      1.0000 0.00251  0.69657  0.71075  Biso   1.000  N
  N23      1.0000 0.71075  0.28009  0.00251  Biso   1.000  N
  N24      1.0000 0.29427  0.98833  0.71075  Biso   1.000  N
  O73      1.0000 0.07249  0.24565  0.00251  Biso   1.000  O
  O74      1.0000 0.07249  0.98833  0.25983  Biso   1.000  O
  O75      1.0000 0.00251  0.05805  0.66524  Biso   1.000  O
  O76      1.0000 0.74519  0.91835  0.00251  Biso   1.000  O
  O77      1.0000 0.74519  0.98833  0.93253  Biso   1.000  O
  O78      1.0000 0.04239  0.53830  0.55248  Biso   1.000  O
  O79      1.0000 0.45254  0.02821  0.45254  Biso   1.000  O
  O80      1.0000 0.93253  0.24565  0.00251  Biso   1.000  O
  O81      1.0000 0.93253  0.98833  0.25983  Biso   1.000  O
  O82      1.0000 0.25983  0.98833  0.93253  Biso   1.000  O
  O83      1.0000 0.00251  0.91835  0.74519  Biso   1.000  O
  O84      1.0000 0.93279  0.32560  0.00251  Biso   1.000  O
  O85      1.0000 0.00251  0.65106  0.93279  Biso   1.000  O
  O86      1.0000 0.00251  0.91835  0.25983  Biso   1.000  O
  O87      1.0000 0.25983  0.05831  0.00251  Biso   1.000  O
  O88      1.0000 0.00251  0.91861  0.66524  Biso   1.000  O
  O89      1.0000 0.04239  0.43836  0.55248  Biso   1.000  O
  O90      1.0000 0.45254  0.94845  0.45254  Biso   1.000  O
  O91      1.0000 0.66524  0.05805  0.00251  Biso   1.000  O
  O92      1.0000 0.74519  0.98833  0.07249  Biso   1.000  O
  O93      1.0000 0.96263  0.43836  0.55248  Biso   1.000  O
  O94      1.0000 0.07223  0.98833  0.33978  Biso   1.000  O
  O95      1.0000 0.00251  0.24565  0.93253  Biso   1.000  O
  O96      1.0000 0.55248  0.02821  0.55248  Biso   1.000  O
  O97      1.0000 0.55248  0.02821  0.45254  Biso   1.000  O
  O98      1.0000 0.00251  0.32560  0.07223  Biso   1.000  O
  O99      1.0000 0.45254  0.53830  0.96263  Biso   1.000  O
  O100     1.0000 0.33978  0.91861  0.00251  Biso   1.000  O
  O101     1.0000 0.45254  0.02821  0.55248  Biso   1.000  O
  O102     1.0000 0.55248  0.53830  0.96263  Biso   1.000  O
  O103     1.0000 0.04239  0.43836  0.45254  Biso   1.000  O
  O104     1.0000 0.07249  0.73101  0.00251  Biso   1.000  O
  O105     1.0000 0.55248  0.43836  0.04239  Biso   1.000  O
  O106     1.0000 0.04239  0.53830  0.45254  Biso   1.000  O
  O107     1.0000 0.25983  0.91835  0.00251  Biso   1.000  O
  O108     1.0000 0.74519  0.05831  0.00251  Biso   1.000  O
  O109     1.0000 0.00251  0.91861  0.33978  Biso   1.000  O
  O110     1.0000 0.93253  0.73101  0.00251  Biso   1.000  O
  O111     1.0000 0.33978  0.98833  0.07223  Biso   1.000  O
  O112     1.0000 0.96263  0.53830  0.55248  Biso   1.000  O
  O113     1.0000 0.96263  0.53830  0.45254  Biso   1.000  O
  O114     1.0000 0.93279  0.98833  0.66524  Biso   1.000  O
  O115     1.0000 0.07249  0.98833  0.74519  Biso   1.000  O
  O116     1.0000 0.25983  0.98833  0.07249  Biso   1.000  O
  O117     1.0000 0.66524  0.98833  0.93279  Biso   1.000  O
  O118     1.0000 0.00251  0.65106  0.07223  Biso   1.000  O
  O119     1.0000 0.07223  0.65106  0.00251  Biso   1.000  O
  O120     1.0000 0.00251  0.05805  0.33978  Biso   1.000  O
  O121     1.0000 0.93253  0.98833  0.74519  Biso   1.000  O
  O122     1.0000 0.45254  0.43836  0.04239  Biso   1.000  O
  O123     1.0000 0.33978  0.98833  0.93279  Biso   1.000  O
  O124     1.0000 0.07223  0.32560  0.00251  Biso   1.000  O
  O125     1.0000 0.66524  0.91861  0.00251  Biso   1.000  O
  O126     1.0000 0.00251  0.05831  0.25983  Biso   1.000  O
  O127     1.0000 0.96263  0.43836  0.45254  Biso   1.000  O
  O128     1.0000 0.00251  0.24565  0.07249  Biso   1.000  O
  O129     1.0000 0.00251  0.73101  0.07249  Biso   1.000  O
  O130     1.0000 0.93279  0.65106  0.00251  Biso   1.000  O
  O131     1.0000 0.07223  0.98833  0.66524  Biso   1.000  O
  O132     1.0000 0.45254  0.43836  0.96263  Biso   1.000  O
  O133     1.0000 0.33978  0.05805  0.00251  Biso   1.000  O
  O134     1.0000 0.55248  0.53830  0.04239  Biso   1.000  O
  O135     1.0000 0.45254  0.94845  0.55248  Biso   1.000  O
  O136     1.0000 0.45254  0.53830  0.04239  Biso   1.000  O
  O137     1.0000 0.66524  0.98833  0.07223  Biso   1.000  O
  O138     1.0000 0.00251  0.73101  0.93253  Biso   1.000  O
  O139     1.0000 0.00251  0.32560  0.93279  Biso   1.000  O
  O140     1.0000 0.55248  0.94845  0.55248  Biso   1.000  O
  O141     1.0000 0.55248  0.43836  0.96263  Biso   1.000  O
  O142     1.0000 0.55248  0.94845  0.45254  Biso   1.000  O
  O143     1.0000 0.00251  0.05831  0.74519  Biso   1.000  O
