data_image0
_cell_length_a       33.97
_cell_length_b       33.97
_cell_length_c       33.97
_cell_angle_alpha    90
_cell_angle_beta     90
_cell_angle_gamma    90

_symmetry_space_group_name_H-M    "P 1"
_symmetry_int_tables_number       1

loop_
  _symmetry_equiv_pos_as_xyz
  'x, y, z'

loop_
  _atom_site_label
  _atom_site_occupancy
  _atom_site_fract_x
  _atom_site_fract_y
  _atom_site_fract_z
  _atom_site_thermal_displace_type
  _atom_site_B_iso_or_equiv
  _atom_site_type_symbol
  C1       1.0000 0.00000  0.46110  0.00000  Biso   1.000  C
  C2       1.0000 0.50000  0.50000  0.78218  Biso   1.000  C
  C3       1.0000 0.78218  0.50000  0.50000  Biso   1.000  C
  C4       1.0000 0.50000  0.50000  0.29502  Biso   1.000  C
  C5       1.0000 0.21782  0.50000  0.50000  Biso   1.000  C
  C6       1.0000 0.50000  0.50000  0.21782  Biso   1.000  C
  C7       1.0000 0.00000  0.00000  0.46110  Biso   1.000  C
  C8       1.0000 0.70498  0.50000  0.50000  Biso   1.000  C
  C9       1.0000 0.50000  0.70498  0.50000  Biso   1.000  C
  C10      1.0000 0.29502  0.50000  0.50000  Biso   1.000  C
  C11      1.0000 0.50000  0.21782  0.50000  Biso   1.000  C
  C12      1.0000 0.00000  0.53890  0.00000  Biso   1.000  C
  C13      1.0000 0.00000  0.00000  0.53890  Biso   1.000  C
  C14      1.0000 0.46110  0.00000  0.00000  Biso   1.000  C
  C15      1.0000 0.50000  0.50000  0.70498  Biso   1.000  C
  C16      1.0000 0.50000  0.78218  0.50000  Biso   1.000  C
  C17      1.0000 0.50000  0.29502  0.50000  Biso   1.000  C
  C18      1.0000 0.53890  0.00000  0.00000  Biso   1.000  C
  C19      1.0000 0.80540  0.50000  0.69200  Biso   1.000  C
  C20      1.0000 0.19460  0.50000  0.30800  Biso   1.000  C
  C21      1.0000 0.19460  0.69200  0.50000  Biso   1.000  C
  C22      1.0000 0.15540  0.54980  0.79970  Biso   1.000  C
  C23      1.0000 0.44080  0.08840  0.08840  Biso   1.000  C
  C24      1.0000 0.45020  0.15540  0.79970  Biso   1.000  C
  C25      1.0000 0.20500  0.24770  0.54990  Biso   1.000  C
  C26      1.0000 0.91160  0.91160  0.55920  Biso   1.000  C
  C27      1.0000 0.50000  0.62440  0.80340  Biso   1.000  C
  C28      1.0000 0.54990  0.20500  0.24770  Biso   1.000  C
  C29      1.0000 0.84460  0.54980  0.79970  Biso   1.000  C
  C30      1.0000 0.24770  0.54990  0.20500  Biso   1.000  C
  C31      1.0000 0.91160  0.44080  0.91160  Biso   1.000  C
  C32      1.0000 0.68490  0.37430  0.50000  Biso   1.000  C
  C33      1.0000 0.79500  0.75230  0.54990  Biso   1.000  C
  C34      1.0000 0.80340  0.62440  0.50000  Biso   1.000  C
  C35      1.0000 0.79500  0.54990  0.24770  Biso   1.000  C
  C36      1.0000 0.79970  0.84460  0.54980  Biso   1.000  C
  C37      1.0000 0.19660  0.37560  0.50000  Biso   1.000  C
  C38      1.0000 0.50000  0.30800  0.19460  Biso   1.000  C
  C39      1.0000 0.86320  0.44170  0.86320  Biso   1.000  C
  C40      1.0000 0.54990  0.75230  0.79500  Biso   1.000  C
  C41      1.0000 0.79500  0.24770  0.54990  Biso   1.000  C
  C42      1.0000 0.62570  0.68490  0.50000  Biso   1.000  C
  C43      1.0000 0.50000  0.80340  0.37560  Biso   1.000  C
  C44      1.0000 0.45010  0.24770  0.20500  Biso   1.000  C
  C45      1.0000 0.79970  0.15540  0.45020  Biso   1.000  C
  C46      1.0000 0.15540  0.45020  0.79970  Biso   1.000  C
  C47      1.0000 0.91160  0.08840  0.44080  Biso   1.000  C
  C48      1.0000 0.19460  0.50000  0.69200  Biso   1.000  C
  C49      1.0000 0.50000  0.19660  0.37560  Biso   1.000  C
  C50      1.0000 0.62570  0.50000  0.68490  Biso   1.000  C
  C51      1.0000 0.62440  0.50000  0.80340  Biso   1.000  C
  C52      1.0000 0.44080  0.08840  0.91160  Biso   1.000  C
  C53      1.0000 0.50000  0.62440  0.19660  Biso   1.000  C
  C54      1.0000 0.50000  0.37560  0.80340  Biso   1.000  C
  C55      1.0000 0.08840  0.91160  0.55920  Biso   1.000  C
  C56      1.0000 0.13680  0.13680  0.55830  Biso   1.000  C
  C57      1.0000 0.55830  0.13680  0.13680  Biso   1.000  C
  C58      1.0000 0.84460  0.54980  0.20030  Biso   1.000  C
  C59      1.0000 0.15540  0.79970  0.45020  Biso   1.000  C
  C60      1.0000 0.45010  0.75230  0.79500  Biso   1.000  C
  C61      1.0000 0.55920  0.91160  0.91160  Biso   1.000  C
  C62      1.0000 0.55920  0.08840  0.91160  Biso   1.000  C
  C63      1.0000 0.45010  0.79500  0.75230  Biso   1.000  C
  C64      1.0000 0.50000  0.69200  0.19460  Biso   1.000  C
  C65      1.0000 0.54980  0.79970  0.84460  Biso   1.000  C
  C66      1.0000 0.20030  0.15540  0.54980  Biso   1.000  C
  C67      1.0000 0.31510  0.37430  0.50000  Biso   1.000  C
  C68      1.0000 0.50000  0.37430  0.68490  Biso   1.000  C
  C69      1.0000 0.24770  0.20500  0.45010  Biso   1.000  C
  C70      1.0000 0.15540  0.45020  0.20030  Biso   1.000  C
  C71      1.0000 0.79500  0.75230  0.45010  Biso   1.000  C
  C72      1.0000 0.20030  0.45020  0.84460  Biso   1.000  C
  C73      1.0000 0.79970  0.54980  0.15540  Biso   1.000  C
  C74      1.0000 0.19660  0.50000  0.37560  Biso   1.000  C
  C75      1.0000 0.91160  0.55920  0.08840  Biso   1.000  C
  C76      1.0000 0.13680  0.86320  0.44170  Biso   1.000  C
  C77      1.0000 0.20500  0.54990  0.75230  Biso   1.000  C
  C78      1.0000 0.15540  0.79970  0.54980  Biso   1.000  C
  C79      1.0000 0.75230  0.45010  0.20500  Biso   1.000  C
  C80      1.0000 0.50000  0.31510  0.62570  Biso   1.000  C
  C81      1.0000 0.30800  0.80540  0.50000  Biso   1.000  C
  C82      1.0000 0.54990  0.24770  0.20500  Biso   1.000  C
  C83      1.0000 0.62570  0.31510  0.50000  Biso   1.000  C
  C84      1.0000 0.15540  0.20030  0.45020  Biso   1.000  C
  C85      1.0000 0.84460  0.45020  0.20030  Biso   1.000  C
  C86      1.0000 0.75230  0.54990  0.20500  Biso   1.000  C
  C87      1.0000 0.20030  0.84460  0.45020  Biso   1.000  C
  C88      1.0000 0.24770  0.45010  0.20500  Biso   1.000  C
  C89      1.0000 0.20500  0.75230  0.54990  Biso   1.000  C
  C90      1.0000 0.86320  0.44170  0.13680  Biso   1.000  C
  C91      1.0000 0.80540  0.30800  0.50000  Biso   1.000  C
  C92      1.0000 0.44170  0.13680  0.13680  Biso   1.000  C
  C93      1.0000 0.45010  0.24770  0.79500  Biso   1.000  C
  C94      1.0000 0.54990  0.79500  0.75230  Biso   1.000  C
  C95      1.0000 0.69200  0.19460  0.50000  Biso   1.000  C
  C96      1.0000 0.45020  0.79970  0.15540  Biso   1.000  C
  C97      1.0000 0.62440  0.19660  0.50000  Biso   1.000  C
  C98      1.0000 0.91160  0.08840  0.55920  Biso   1.000  C
  C99      1.0000 0.50000  0.80540  0.30800  Biso   1.000  C
  C100     1.0000 0.75230  0.54990  0.79500  Biso   1.000  C
  C101     1.0000 0.31510  0.50000  0.62570  Biso   1.000  C
  C102     1.0000 0.13680  0.13680  0.44170  Biso   1.000  C
  C103     1.0000 0.45010  0.20500  0.75230  Biso   1.000  C
  C104     1.0000 0.54980  0.20030  0.15540  Biso   1.000  C
  C105     1.0000 0.37430  0.31510  0.50000  Biso   1.000  C
  C106     1.0000 0.79970  0.54980  0.84460  Biso   1.000  C
  C107     1.0000 0.50000  0.62570  0.68490  Biso   1.000  C
  C108     1.0000 0.08840  0.55920  0.08840  Biso   1.000  C
  C109     1.0000 0.79970  0.45020  0.84460  Biso   1.000  C
  C110     1.0000 0.13680  0.44170  0.13680  Biso   1.000  C
  C111     1.0000 0.20500  0.75230  0.45010  Biso   1.000  C
  C112     1.0000 0.24770  0.79500  0.54990  Biso   1.000  C
  C113     1.0000 0.50000  0.37560  0.19660  Biso   1.000  C
  C114     1.0000 0.37560  0.19660  0.50000  Biso   1.000  C
  C115     1.0000 0.75230  0.45010  0.79500  Biso   1.000  C
  C116     1.0000 0.45020  0.79970  0.84460  Biso   1.000  C
  C117     1.0000 0.19660  0.62440  0.50000  Biso   1.000  C
  C118     1.0000 0.55830  0.86320  0.13680  Biso   1.000  C
  C119     1.0000 0.50000  0.19460  0.69200  Biso   1.000  C
  C120     1.0000 0.69200  0.80540  0.50000  Biso   1.000  C
  C121     1.0000 0.75230  0.20500  0.54990  Biso   1.000  C
  C122     1.0000 0.86320  0.55830  0.13680  Biso   1.000  C
  C123     1.0000 0.44170  0.86320  0.13680  Biso   1.000  C
  C124     1.0000 0.50000  0.30800  0.80540  Biso   1.000  C
  C125     1.0000 0.79970  0.45020  0.15540  Biso   1.000  C
  C126     1.0000 0.62440  0.80340  0.50000  Biso   1.000  C
  C127     1.0000 0.20030  0.54980  0.15540  Biso   1.000  C
  C128     1.0000 0.79500  0.45010  0.24770  Biso   1.000  C
  C129     1.0000 0.31510  0.62570  0.50000  Biso   1.000  C
  C130     1.0000 0.50000  0.19460  0.30800  Biso   1.000  C
  C131     1.0000 0.08840  0.44080  0.08840  Biso   1.000  C
  C132     1.0000 0.84460  0.20030  0.45020  Biso   1.000  C
  C133     1.0000 0.54980  0.20030  0.84460  Biso   1.000  C
  C134     1.0000 0.86320  0.13680  0.55830  Biso   1.000  C
  C135     1.0000 0.91160  0.44080  0.08840  Biso   1.000  C
  C136     1.0000 0.80540  0.50000  0.30800  Biso   1.000  C
  C137     1.0000 0.24770  0.79500  0.45010  Biso   1.000  C
  C138     1.0000 0.45020  0.84460  0.79970  Biso   1.000  C
  C139     1.0000 0.69200  0.50000  0.80540  Biso   1.000  C
  C140     1.0000 0.20030  0.54980  0.84460  Biso   1.000  C
  C141     1.0000 0.24770  0.20500  0.54990  Biso   1.000  C
  C142     1.0000 0.54980  0.15540  0.79970  Biso   1.000  C
  C143     1.0000 0.13680  0.86320  0.55830  Biso   1.000  C
  C144     1.0000 0.15540  0.54980  0.20030  Biso   1.000  C
  C145     1.0000 0.86320  0.55830  0.86320  Biso   1.000  C
  C146     1.0000 0.37430  0.68490  0.50000  Biso   1.000  C
  C147     1.0000 0.30800  0.50000  0.19460  Biso   1.000  C
  C148     1.0000 0.54980  0.15540  0.20030  Biso   1.000  C
  C149     1.0000 0.50000  0.68490  0.62570  Biso   1.000  C
  C150     1.0000 0.45020  0.84460  0.20030  Biso   1.000  C
  C151     1.0000 0.62570  0.50000  0.31510  Biso   1.000  C
  C152     1.0000 0.37560  0.80340  0.50000  Biso   1.000  C
  C153     1.0000 0.80340  0.50000  0.62440  Biso   1.000  C
  C154     1.0000 0.45020  0.15540  0.20030  Biso   1.000  C
  C155     1.0000 0.50000  0.37430  0.31510  Biso   1.000  C
  C156     1.0000 0.20500  0.54990  0.24770  Biso   1.000  C
  C157     1.0000 0.84460  0.79970  0.54980  Biso   1.000  C
  C158     1.0000 0.69200  0.50000  0.19460  Biso   1.000  C
  C159     1.0000 0.24770  0.45010  0.79500  Biso   1.000  C
  C160     1.0000 0.84460  0.79970  0.45020  Biso   1.000  C
  C161     1.0000 0.20500  0.24770  0.45010  Biso   1.000  C
  C162     1.0000 0.54990  0.20500  0.75230  Biso   1.000  C
  C163     1.0000 0.86320  0.86320  0.55830  Biso   1.000  C
  C164     1.0000 0.50000  0.80340  0.62440  Biso   1.000  C
  C165     1.0000 0.13680  0.55830  0.13680  Biso   1.000  C
  C166     1.0000 0.62440  0.50000  0.19660  Biso   1.000  C
  C167     1.0000 0.54980  0.79970  0.15540  Biso   1.000  C
  C168     1.0000 0.55920  0.08840  0.08840  Biso   1.000  C
  C169     1.0000 0.54990  0.24770  0.79500  Biso   1.000  C
  C170     1.0000 0.55830  0.13680  0.86320  Biso   1.000  C
  C171     1.0000 0.79500  0.24770  0.45010  Biso   1.000  C
  C172     1.0000 0.50000  0.69200  0.80540  Biso   1.000  C
  C173     1.0000 0.80340  0.37560  0.50000  Biso   1.000  C
  C174     1.0000 0.86320  0.86320  0.44170  Biso   1.000  C
  C175     1.0000 0.50000  0.19660  0.62440  Biso   1.000  C
  C176     1.0000 0.44080  0.91160  0.91160  Biso   1.000  C
  C177     1.0000 0.15540  0.20030  0.54980  Biso   1.000  C
  C178     1.0000 0.45020  0.20030  0.15540  Biso   1.000  C
  C179     1.0000 0.20030  0.84460  0.54980  Biso   1.000  C
  C180     1.0000 0.79970  0.15540  0.54980  Biso   1.000  C
  C181     1.0000 0.08840  0.44080  0.91160  Biso   1.000  C
  C182     1.0000 0.45010  0.20500  0.24770  Biso   1.000  C
  C183     1.0000 0.30800  0.50000  0.80540  Biso   1.000  C
  C184     1.0000 0.55830  0.86320  0.86320  Biso   1.000  C
  C185     1.0000 0.54980  0.84460  0.79970  Biso   1.000  C
  C186     1.0000 0.84460  0.45020  0.79970  Biso   1.000  C
  C187     1.0000 0.44080  0.91160  0.08840  Biso   1.000  C
  C188     1.0000 0.50000  0.68490  0.37430  Biso   1.000  C
  C189     1.0000 0.30800  0.19460  0.50000  Biso   1.000  C
  C190     1.0000 0.13680  0.44170  0.86320  Biso   1.000  C
  C191     1.0000 0.75230  0.79500  0.54990  Biso   1.000  C
  C192     1.0000 0.37430  0.50000  0.68490  Biso   1.000  C
  C193     1.0000 0.20500  0.45010  0.24770  Biso   1.000  C
  C194     1.0000 0.20500  0.45010  0.75230  Biso   1.000  C
  C195     1.0000 0.13680  0.55830  0.86320  Biso   1.000  C
  C196     1.0000 0.08840  0.55920  0.91160  Biso   1.000  C
  C197     1.0000 0.68490  0.50000  0.37430  Biso   1.000  C
  C198     1.0000 0.86320  0.13680  0.44170  Biso   1.000  C
  C199     1.0000 0.68490  0.50000  0.62570  Biso   1.000  C
  C200     1.0000 0.45010  0.75230  0.20500  Biso   1.000  C
  C201     1.0000 0.20030  0.15540  0.45020  Biso   1.000  C
  C202     1.0000 0.45010  0.79500  0.24770  Biso   1.000  C
  C203     1.0000 0.55920  0.91160  0.08840  Biso   1.000  C
  C204     1.0000 0.31510  0.50000  0.37430  Biso   1.000  C
  C205     1.0000 0.44170  0.86320  0.86320  Biso   1.000  C
  C206     1.0000 0.19460  0.30800  0.50000  Biso   1.000  C
  C207     1.0000 0.79500  0.45010  0.75230  Biso   1.000  C
  C208     1.0000 0.75230  0.20500  0.45010  Biso   1.000  C
  C209     1.0000 0.37430  0.50000  0.31510  Biso   1.000  C
  C210     1.0000 0.37560  0.50000  0.19660  Biso   1.000  C
  C211     1.0000 0.80540  0.69200  0.50000  Biso   1.000  C
  C212     1.0000 0.84460  0.20030  0.54980  Biso   1.000  C
  C213     1.0000 0.91160  0.91160  0.44080  Biso   1.000  C
  C214     1.0000 0.54990  0.75230  0.20500  Biso   1.000  C
  C215     1.0000 0.50000  0.31510  0.37430  Biso   1.000  C
  C216     1.0000 0.08840  0.08840  0.44080  Biso   1.000  C
  C217     1.0000 0.50000  0.62570  0.31510  Biso   1.000  C
  C218     1.0000 0.08840  0.08840  0.55920  Biso   1.000  C
  C219     1.0000 0.50000  0.80540  0.69200  Biso   1.000  C
  C220     1.0000 0.79970  0.84460  0.45020  Biso   1.000  C
  C221     1.0000 0.45020  0.20030  0.84460  Biso   1.000  C
  C222     1.0000 0.19660  0.50000  0.62440  Biso   1.000  C
  C223     1.0000 0.75230  0.79500  0.45010  Biso   1.000  C
  C224     1.0000 0.24770  0.54990  0.79500  Biso   1.000  C
  C225     1.0000 0.20030  0.45020  0.15540  Biso   1.000  C
  C226     1.0000 0.08840  0.91160  0.44080  Biso   1.000  C
  C227     1.0000 0.54990  0.79500  0.24770  Biso   1.000  C
  C228     1.0000 0.79500  0.54990  0.75230  Biso   1.000  C
  C229     1.0000 0.54980  0.84460  0.20030  Biso   1.000  C
  C230     1.0000 0.80340  0.50000  0.37560  Biso   1.000  C
  C231     1.0000 0.37560  0.50000  0.80340  Biso   1.000  C
  C232     1.0000 0.44170  0.13680  0.86320  Biso   1.000  C
  C233     1.0000 0.91160  0.55920  0.91160  Biso   1.000  C
  C234     1.0000 0.68490  0.62570  0.50000  Biso   1.000  C
  C235     1.0000 0.23042  0.76958  0.50000  Biso   1.000  C
  C236     1.0000 0.52962  0.22935  0.79632  Biso   1.000  C
  C237     1.0000 0.78139  0.50000  0.67879  Biso   1.000  C
  C238     1.0000 0.52977  0.79934  0.82588  Biso   1.000  C
  C239     1.0000 0.78139  0.32121  0.50000  Biso   1.000  C
  C240     1.0000 0.17412  0.79934  0.47023  Biso   1.000  C
  C241     1.0000 0.67879  0.78139  0.50000  Biso   1.000  C
  C242     1.0000 0.76958  0.50000  0.76958  Biso   1.000  C
  C243     1.0000 0.52962  0.77065  0.20368  Biso   1.000  C
  C244     1.0000 0.50000  0.22005  0.63859  Biso   1.000  C
  C245     1.0000 0.25621  0.50000  0.57439  Biso   1.000  C
  C246     1.0000 0.23042  0.23042  0.50000  Biso   1.000  C
  C247     1.0000 0.52977  0.82588  0.20066  Biso   1.000  C
  C248     1.0000 0.94784  0.94784  0.50000  Biso   1.000  C
  C249     1.0000 0.87291  0.53461  0.12709  Biso   1.000  C
  C250     1.0000 0.22005  0.50000  0.36141  Biso   1.000  C
  C251     1.0000 0.17273  0.82727  0.50000  Biso   1.000  C
  C252     1.0000 0.74381  0.61808  0.50000  Biso   1.000  C
  C253     1.0000 0.20066  0.17412  0.52977  Biso   1.000  C
  C254     1.0000 0.50000  0.29117  0.36101  Biso   1.000  C
  C255     1.0000 0.50000  0.05216  0.05216  Biso   1.000  C
  C256     1.0000 0.77065  0.47038  0.79632  Biso   1.000  C
  C257     1.0000 0.12709  0.53461  0.12709  Biso   1.000  C
  C258     1.0000 0.47023  0.79934  0.17412  Biso   1.000  C
  C259     1.0000 0.20066  0.47023  0.17412  Biso   1.000  C
  C260     1.0000 0.36101  0.50000  0.29117  Biso   1.000  C
  C261     1.0000 0.52962  0.20368  0.22935  Biso   1.000  C
  C262     1.0000 0.38192  0.50000  0.25619  Biso   1.000  C
  C263     1.0000 0.47023  0.17412  0.20066  Biso   1.000  C
  C264     1.0000 0.85836  0.50000  0.14164  Biso   1.000  C
  C265     1.0000 0.05216  0.50000  0.94784  Biso   1.000  C
  C266     1.0000 0.77065  0.79632  0.47038  Biso   1.000  C
  C267     1.0000 0.50000  0.22005  0.36141  Biso   1.000  C
  C268     1.0000 0.79934  0.17412  0.52977  Biso   1.000  C
  C269     1.0000 0.29117  0.50000  0.36101  Biso   1.000  C
  C270     1.0000 0.50000  0.29047  0.67954  Biso   1.000  C
  C271     1.0000 0.50000  0.25361  0.69929  Biso   1.000  C
  C272     1.0000 0.50000  0.36141  0.77995  Biso   1.000  C
  C273     1.0000 0.63899  0.29117  0.50000  Biso   1.000  C
  C274     1.0000 0.79934  0.82588  0.47023  Biso   1.000  C
  C275     1.0000 0.17273  0.50000  0.82727  Biso   1.000  C
  C276     1.0000 0.78139  0.50000  0.32121  Biso   1.000  C
  C277     1.0000 0.09793  0.09793  0.46456  Biso   1.000  C
  C278     1.0000 0.50000  0.82727  0.82727  Biso   1.000  C
  C279     1.0000 0.94784  0.05216  0.50000  Biso   1.000  C
  C280     1.0000 0.20368  0.22935  0.47038  Biso   1.000  C
  C281     1.0000 0.38192  0.25619  0.50000  Biso   1.000  C
  C282     1.0000 0.50000  0.25621  0.42561  Biso   1.000  C
  C283     1.0000 0.77065  0.52962  0.79632  Biso   1.000  C
  C284     1.0000 0.22935  0.52962  0.79632  Biso   1.000  C
  C285     1.0000 0.63899  0.70883  0.50000  Biso   1.000  C
  C286     1.0000 0.22935  0.20368  0.47038  Biso   1.000  C
  C287     1.0000 0.61808  0.74381  0.50000  Biso   1.000  C
  C288     1.0000 0.22005  0.63859  0.50000  Biso   1.000  C
  C289     1.0000 0.42561  0.74379  0.50000  Biso   1.000  C
  C290     1.0000 0.23042  0.50000  0.76958  Biso   1.000  C
  C291     1.0000 0.79632  0.22935  0.52962  Biso   1.000  C
  C292     1.0000 0.50000  0.70883  0.63899  Biso   1.000  C
  C293     1.0000 0.50000  0.74639  0.69929  Biso   1.000  C
  C294     1.0000 0.50000  0.36101  0.29117  Biso   1.000  C
  C295     1.0000 0.74379  0.42561  0.50000  Biso   1.000  C
  C296     1.0000 0.52977  0.17412  0.20066  Biso   1.000  C
  C297     1.0000 0.05216  0.94784  0.50000  Biso   1.000  C
  C298     1.0000 0.50000  0.08375  0.91625  Biso   1.000  C
  C299     1.0000 0.12709  0.53461  0.87291  Biso   1.000  C
  C300     1.0000 0.32046  0.50000  0.29047  Biso   1.000  C
  C301     1.0000 0.25619  0.38192  0.50000  Biso   1.000  C
  C302     1.0000 0.14164  0.85836  0.50000  Biso   1.000  C
  C303     1.0000 0.67954  0.70953  0.50000  Biso   1.000  C
  C304     1.0000 0.50000  0.25621  0.57439  Biso   1.000  C
  C305     1.0000 0.20368  0.47038  0.77065  Biso   1.000  C
  C306     1.0000 0.50000  0.32121  0.78139  Biso   1.000  C
  C307     1.0000 0.36141  0.77995  0.50000  Biso   1.000  C
  C308     1.0000 0.90207  0.46456  0.09793  Biso   1.000  C
  C309     1.0000 0.53544  0.90207  0.90207  Biso   1.000  C
  C310     1.0000 0.69929  0.74639  0.50000  Biso   1.000  C
  C311     1.0000 0.50000  0.74381  0.38192  Biso   1.000  C
  C312     1.0000 0.82727  0.17273  0.50000  Biso   1.000  C
  C313     1.0000 0.22935  0.20368  0.52962  Biso   1.000  C
  C314     1.0000 0.17412  0.47023  0.20066  Biso   1.000  C
  C315     1.0000 0.50000  0.21861  0.67879  Biso   1.000  C
  C316     1.0000 0.70883  0.36101  0.50000  Biso   1.000  C
  C317     1.0000 0.36141  0.50000  0.77995  Biso   1.000  C
  C318     1.0000 0.29117  0.50000  0.63899  Biso   1.000  C
  C319     1.0000 0.74639  0.69929  0.50000  Biso   1.000  C
  C320     1.0000 0.25361  0.50000  0.30071  Biso   1.000  C
  C321     1.0000 0.50000  0.36141  0.22005  Biso   1.000  C
  C322     1.0000 0.25619  0.61808  0.50000  Biso   1.000  C
  C323     1.0000 0.63859  0.77995  0.50000  Biso   1.000  C
  C324     1.0000 0.91625  0.50000  0.91625  Biso   1.000  C
  C325     1.0000 0.53544  0.09793  0.90207  Biso   1.000  C
  C326     1.0000 0.22935  0.52962  0.20368  Biso   1.000  C
  C327     1.0000 0.50000  0.57439  0.25621  Biso   1.000  C
  C328     1.0000 0.09793  0.46456  0.09793  Biso   1.000  C
  C329     1.0000 0.20066  0.17412  0.47023  Biso   1.000  C
  C330     1.0000 0.32121  0.21861  0.50000  Biso   1.000  C
  C331     1.0000 0.09793  0.90207  0.46456  Biso   1.000  C
  C332     1.0000 0.46456  0.09793  0.90207  Biso   1.000  C
  C333     1.0000 0.57439  0.50000  0.74379  Biso   1.000  C
  C334     1.0000 0.50000  0.23042  0.23042  Biso   1.000  C
  C335     1.0000 0.67879  0.21861  0.50000  Biso   1.000  C
  C336     1.0000 0.50000  0.82727  0.17273  Biso   1.000  C
  C337     1.0000 0.52962  0.79632  0.22935  Biso   1.000  C
  C338     1.0000 0.82588  0.20066  0.47023  Biso   1.000  C
  C339     1.0000 0.50000  0.94784  0.05216  Biso   1.000  C
  C340     1.0000 0.82727  0.82727  0.50000  Biso   1.000  C
  C341     1.0000 0.47038  0.77065  0.20368  Biso   1.000  C
  C342     1.0000 0.90207  0.53544  0.90207  Biso   1.000  C
  C343     1.0000 0.79632  0.47038  0.22935  Biso   1.000  C
  C344     1.0000 0.77065  0.20368  0.52962  Biso   1.000  C
  C345     1.0000 0.50000  0.67879  0.21861  Biso   1.000  C
  C346     1.0000 0.82588  0.79934  0.47023  Biso   1.000  C
  C347     1.0000 0.50000  0.70883  0.36101  Biso   1.000  C
  C348     1.0000 0.17412  0.52977  0.20066  Biso   1.000  C
  C349     1.0000 0.50000  0.67879  0.78139  Biso   1.000  C
  C350     1.0000 0.09793  0.09793  0.53544  Biso   1.000  C
  C351     1.0000 0.77065  0.52962  0.20368  Biso   1.000  C
  C352     1.0000 0.46539  0.87291  0.12709  Biso   1.000  C
  C353     1.0000 0.50000  0.30071  0.25361  Biso   1.000  C
  C354     1.0000 0.47023  0.20066  0.82588  Biso   1.000  C
  C355     1.0000 0.74379  0.57439  0.50000  Biso   1.000  C
  C356     1.0000 0.87291  0.46539  0.12709  Biso   1.000  C
  C357     1.0000 0.82588  0.52977  0.79934  Biso   1.000  C
  C358     1.0000 0.79632  0.77065  0.47038  Biso   1.000  C
  C359     1.0000 0.77065  0.47038  0.20368  Biso   1.000  C
  C360     1.0000 0.52977  0.20066  0.82588  Biso   1.000  C
  C361     1.0000 0.77065  0.20368  0.47038  Biso   1.000  C
  C362     1.0000 0.50000  0.63899  0.70883  Biso   1.000  C
  C363     1.0000 0.20368  0.52962  0.22935  Biso   1.000  C
  C364     1.0000 0.94784  0.50000  0.05216  Biso   1.000  C
  C365     1.0000 0.32121  0.50000  0.21861  Biso   1.000  C
  C366     1.0000 0.32121  0.78139  0.50000  Biso   1.000  C
  C367     1.0000 0.50000  0.38192  0.74381  Biso   1.000  C
  C368     1.0000 0.87291  0.87291  0.46539  Biso   1.000  C
  C369     1.0000 0.36101  0.70883  0.50000  Biso   1.000  C
  C370     1.0000 0.67954  0.29047  0.50000  Biso   1.000  C
  C371     1.0000 0.90207  0.90207  0.53544  Biso   1.000  C
  C372     1.0000 0.50000  0.63859  0.77995  Biso   1.000  C
  C373     1.0000 0.50000  0.70953  0.67954  Biso   1.000  C
  C374     1.0000 0.47023  0.17412  0.79934  Biso   1.000  C
  C375     1.0000 0.50000  0.67954  0.70953  Biso   1.000  C
  C376     1.0000 0.50000  0.67954  0.29047  Biso   1.000  C
  C377     1.0000 0.79632  0.77065  0.52962  Biso   1.000  C
  C378     1.0000 0.82588  0.52977  0.20066  Biso   1.000  C
  C379     1.0000 0.79934  0.52977  0.17412  Biso   1.000  C
  C380     1.0000 0.25361  0.50000  0.69929  Biso   1.000  C
  C381     1.0000 0.50000  0.57439  0.74379  Biso   1.000  C
  C382     1.0000 0.29117  0.36101  0.50000  Biso   1.000  C
  C383     1.0000 0.61808  0.50000  0.25619  Biso   1.000  C
  C384     1.0000 0.12709  0.12709  0.46539  Biso   1.000  C
  C385     1.0000 0.53544  0.90207  0.09793  Biso   1.000  C
  C386     1.0000 0.47038  0.79632  0.77065  Biso   1.000  C
  C387     1.0000 0.50000  0.78139  0.67879  Biso   1.000  C
  C388     1.0000 0.50000  0.85836  0.14164  Biso   1.000  C
  C389     1.0000 0.25621  0.42561  0.50000  Biso   1.000  C
  C390     1.0000 0.23042  0.50000  0.23042  Biso   1.000  C
  C391     1.0000 0.20066  0.82588  0.47023  Biso   1.000  C
  C392     1.0000 0.53461  0.12709  0.87291  Biso   1.000  C
  C393     1.0000 0.17412  0.52977  0.79934  Biso   1.000  C
  C394     1.0000 0.36101  0.50000  0.70883  Biso   1.000  C
  C395     1.0000 0.69929  0.25361  0.50000  Biso   1.000  C
  C396     1.0000 0.50000  0.91625  0.08375  Biso   1.000  C
  C397     1.0000 0.42561  0.25621  0.50000  Biso   1.000  C
  C398     1.0000 0.47023  0.79934  0.82588  Biso   1.000  C
  C399     1.0000 0.79632  0.52962  0.22935  Biso   1.000  C
  C400     1.0000 0.20368  0.77065  0.47038  Biso   1.000  C
  C401     1.0000 0.47038  0.20368  0.22935  Biso   1.000  C
  C402     1.0000 0.20066  0.47023  0.82588  Biso   1.000  C
  C403     1.0000 0.87291  0.53461  0.87291  Biso   1.000  C
  C404     1.0000 0.79934  0.47023  0.17412  Biso   1.000  C
  C405     1.0000 0.91625  0.08375  0.50000  Biso   1.000  C
  C406     1.0000 0.67954  0.50000  0.70953  Biso   1.000  C
  C407     1.0000 0.47023  0.82588  0.20066  Biso   1.000  C
  C408     1.0000 0.50000  0.29047  0.32046  Biso   1.000  C
  C409     1.0000 0.50000  0.74381  0.61808  Biso   1.000  C
  C410     1.0000 0.42561  0.50000  0.25621  Biso   1.000  C
  C411     1.0000 0.47038  0.20368  0.77065  Biso   1.000  C
  C412     1.0000 0.12709  0.87291  0.53461  Biso   1.000  C
  C413     1.0000 0.12709  0.46539  0.87291  Biso   1.000  C
  C414     1.0000 0.50000  0.25619  0.61808  Biso   1.000  C
  C415     1.0000 0.20368  0.52962  0.77065  Biso   1.000  C
  C416     1.0000 0.32046  0.50000  0.70953  Biso   1.000  C
  C417     1.0000 0.77995  0.63859  0.50000  Biso   1.000  C
  C418     1.0000 0.29117  0.63899  0.50000  Biso   1.000  C
  C419     1.0000 0.70883  0.50000  0.63899  Biso   1.000  C
  C420     1.0000 0.22935  0.79632  0.47038  Biso   1.000  C
  C421     1.0000 0.08375  0.50000  0.08375  Biso   1.000  C
  C422     1.0000 0.50000  0.36101  0.70883  Biso   1.000  C
  C423     1.0000 0.25621  0.57439  0.50000  Biso   1.000  C
  C424     1.0000 0.21861  0.67879  0.50000  Biso   1.000  C
  C425     1.0000 0.52977  0.20066  0.17412  Biso   1.000  C
  C426     1.0000 0.67879  0.50000  0.21861  Biso   1.000  C
  C427     1.0000 0.50000  0.14164  0.85836  Biso   1.000  C
  C428     1.0000 0.91625  0.50000  0.08375  Biso   1.000  C
  C429     1.0000 0.17412  0.20066  0.52977  Biso   1.000  C
  C430     1.0000 0.67954  0.50000  0.29047  Biso   1.000  C
  C431     1.0000 0.50000  0.42561  0.25621  Biso   1.000  C
  C432     1.0000 0.53461  0.87291  0.12709  Biso   1.000  C
  C433     1.0000 0.74381  0.38192  0.50000  Biso   1.000  C
  C434     1.0000 0.21861  0.50000  0.67879  Biso   1.000  C
  C435     1.0000 0.67879  0.50000  0.78139  Biso   1.000  C
  C436     1.0000 0.50000  0.29117  0.63899  Biso   1.000  C
  C437     1.0000 0.50000  0.69929  0.74639  Biso   1.000  C
  C438     1.0000 0.52962  0.77065  0.79632  Biso   1.000  C
  C439     1.0000 0.50000  0.74379  0.57439  Biso   1.000  C
  C440     1.0000 0.74381  0.50000  0.38192  Biso   1.000  C
  C441     1.0000 0.52962  0.20368  0.77065  Biso   1.000  C
  C442     1.0000 0.50000  0.76958  0.23042  Biso   1.000  C
  C443     1.0000 0.36141  0.22005  0.50000  Biso   1.000  C
  C444     1.0000 0.46539  0.12709  0.87291  Biso   1.000  C
  C445     1.0000 0.50000  0.23042  0.76958  Biso   1.000  C
  C446     1.0000 0.77995  0.50000  0.36141  Biso   1.000  C
  C447     1.0000 0.50000  0.14164  0.14164  Biso   1.000  C
  C448     1.0000 0.05216  0.50000  0.05216  Biso   1.000  C
  C449     1.0000 0.21861  0.50000  0.32121  Biso   1.000  C
  C450     1.0000 0.63899  0.50000  0.70883  Biso   1.000  C
  C451     1.0000 0.50000  0.61808  0.74381  Biso   1.000  C
  C452     1.0000 0.52977  0.17412  0.79934  Biso   1.000  C
  C453     1.0000 0.29047  0.50000  0.67954  Biso   1.000  C
  C454     1.0000 0.50000  0.08375  0.08375  Biso   1.000  C
  C455     1.0000 0.57439  0.50000  0.25621  Biso   1.000  C
  C456     1.0000 0.52962  0.22935  0.20368  Biso   1.000  C
  C457     1.0000 0.90207  0.90207  0.46456  Biso   1.000  C
  C458     1.0000 0.82727  0.50000  0.17273  Biso   1.000  C
  C459     1.0000 0.09793  0.90207  0.53544  Biso   1.000  C
  C460     1.0000 0.82588  0.20066  0.52977  Biso   1.000  C
  C461     1.0000 0.79934  0.47023  0.82588  Biso   1.000  C
  C462     1.0000 0.47038  0.22935  0.20368  Biso   1.000  C
  C463     1.0000 0.17412  0.20066  0.47023  Biso   1.000  C
  C464     1.0000 0.57439  0.25621  0.50000  Biso   1.000  C
  C465     1.0000 0.79934  0.52977  0.82588  Biso   1.000  C
  C466     1.0000 0.47023  0.82588  0.79934  Biso   1.000  C
  C467     1.0000 0.50000  0.94784  0.94784  Biso   1.000  C
  C468     1.0000 0.38192  0.74381  0.50000  Biso   1.000  C
  C469     1.0000 0.50000  0.91625  0.91625  Biso   1.000  C
  C470     1.0000 0.50000  0.30071  0.74639  Biso   1.000  C
  C471     1.0000 0.63859  0.22005  0.50000  Biso   1.000  C
  C472     1.0000 0.82588  0.47023  0.79934  Biso   1.000  C
  C473     1.0000 0.70953  0.32046  0.50000  Biso   1.000  C
  C474     1.0000 0.42561  0.50000  0.74379  Biso   1.000  C
  C475     1.0000 0.76958  0.23042  0.50000  Biso   1.000  C
  C476     1.0000 0.50000  0.42561  0.74379  Biso   1.000  C
  C477     1.0000 0.50000  0.74379  0.42561  Biso   1.000  C
  C478     1.0000 0.74379  0.50000  0.57439  Biso   1.000  C
  C479     1.0000 0.47038  0.79632  0.22935  Biso   1.000  C
  C480     1.0000 0.46539  0.12709  0.12709  Biso   1.000  C
  C481     1.0000 0.53461  0.87291  0.87291  Biso   1.000  C
  C482     1.0000 0.77995  0.50000  0.63859  Biso   1.000  C
  C483     1.0000 0.50000  0.63899  0.29117  Biso   1.000  C
  C484     1.0000 0.50000  0.25619  0.38192  Biso   1.000  C
  C485     1.0000 0.50000  0.78139  0.32121  Biso   1.000  C
  C486     1.0000 0.70883  0.50000  0.36101  Biso   1.000  C
  C487     1.0000 0.08375  0.91625  0.50000  Biso   1.000  C
  C488     1.0000 0.50000  0.17273  0.17273  Biso   1.000  C
  C489     1.0000 0.74379  0.50000  0.42561  Biso   1.000  C
  C490     1.0000 0.76958  0.76958  0.50000  Biso   1.000  C
  C491     1.0000 0.91625  0.91625  0.50000  Biso   1.000  C
  C492     1.0000 0.30071  0.50000  0.74639  Biso   1.000  C
  C493     1.0000 0.08375  0.50000  0.91625  Biso   1.000  C
  C494     1.0000 0.20066  0.52977  0.82588  Biso   1.000  C
  C495     1.0000 0.22935  0.47038  0.20368  Biso   1.000  C
  C496     1.0000 0.70953  0.50000  0.67954  Biso   1.000  C
  C497     1.0000 0.47023  0.20066  0.17412  Biso   1.000  C
  C498     1.0000 0.38192  0.50000  0.74381  Biso   1.000  C
  C499     1.0000 0.29047  0.67954  0.50000  Biso   1.000  C
  C500     1.0000 0.50000  0.85836  0.85836  Biso   1.000  C
  C501     1.0000 0.46456  0.09793  0.09793  Biso   1.000  C
  C502     1.0000 0.52977  0.82588  0.79934  Biso   1.000  C
  C503     1.0000 0.46456  0.90207  0.90207  Biso   1.000  C
  C504     1.0000 0.74639  0.50000  0.69929  Biso   1.000  C
  C505     1.0000 0.87291  0.46539  0.87291  Biso   1.000  C
  C506     1.0000 0.90207  0.09793  0.53544  Biso   1.000  C
  C507     1.0000 0.20066  0.82588  0.52977  Biso   1.000  C
  C508     1.0000 0.50000  0.38192  0.25619  Biso   1.000  C
  C509     1.0000 0.20368  0.47038  0.22935  Biso   1.000  C
  C510     1.0000 0.46456  0.90207  0.09793  Biso   1.000  C
  C511     1.0000 0.61808  0.25619  0.50000  Biso   1.000  C
  C512     1.0000 0.46539  0.87291  0.87291  Biso   1.000  C
  C513     1.0000 0.63899  0.50000  0.29117  Biso   1.000  C
  C514     1.0000 0.85836  0.14164  0.50000  Biso   1.000  C
  C515     1.0000 0.22005  0.50000  0.63859  Biso   1.000  C
  C516     1.0000 0.82727  0.50000  0.82727  Biso   1.000  C
  C517     1.0000 0.85836  0.85836  0.50000  Biso   1.000  C
  C518     1.0000 0.50000  0.32121  0.21861  Biso   1.000  C
  C519     1.0000 0.36141  0.50000  0.22005  Biso   1.000  C
  C520     1.0000 0.78139  0.67879  0.50000  Biso   1.000  C
  C521     1.0000 0.90207  0.53544  0.09793  Biso   1.000  C
  C522     1.0000 0.50000  0.05216  0.94784  Biso   1.000  C
  C523     1.0000 0.50000  0.76958  0.76958  Biso   1.000  C
  C524     1.0000 0.63859  0.50000  0.77995  Biso   1.000  C
  C525     1.0000 0.50000  0.70953  0.32046  Biso   1.000  C
  C526     1.0000 0.90207  0.09793  0.46456  Biso   1.000  C
  C527     1.0000 0.36101  0.29117  0.50000  Biso   1.000  C
  C528     1.0000 0.53461  0.12709  0.12709  Biso   1.000  C
  C529     1.0000 0.25361  0.30071  0.50000  Biso   1.000  C
  C530     1.0000 0.53544  0.09793  0.09793  Biso   1.000  C
  C531     1.0000 0.30071  0.74639  0.50000  Biso   1.000  C
  C532     1.0000 0.17412  0.47023  0.79934  Biso   1.000  C
  C533     1.0000 0.25619  0.50000  0.61808  Biso   1.000  C
  C534     1.0000 0.20368  0.22935  0.52962  Biso   1.000  C
  C535     1.0000 0.79934  0.17412  0.47023  Biso   1.000  C
  C536     1.0000 0.09793  0.53544  0.90207  Biso   1.000  C
  C537     1.0000 0.76958  0.50000  0.23042  Biso   1.000  C
  C538     1.0000 0.17273  0.50000  0.17273  Biso   1.000  C
  C539     1.0000 0.87291  0.12709  0.46539  Biso   1.000  C
  C540     1.0000 0.32046  0.70953  0.50000  Biso   1.000  C
  C541     1.0000 0.82588  0.79934  0.52977  Biso   1.000  C
  C542     1.0000 0.22935  0.79632  0.52962  Biso   1.000  C
  C543     1.0000 0.22935  0.47038  0.79632  Biso   1.000  C
  C544     1.0000 0.50000  0.32046  0.29047  Biso   1.000  C
  C545     1.0000 0.77065  0.79632  0.52962  Biso   1.000  C
  C546     1.0000 0.50000  0.74639  0.30071  Biso   1.000  C
  C547     1.0000 0.79632  0.22935  0.47038  Biso   1.000  C
  C548     1.0000 0.70883  0.63899  0.50000  Biso   1.000  C
  C549     1.0000 0.50000  0.32046  0.70953  Biso   1.000  C
  C550     1.0000 0.32046  0.29047  0.50000  Biso   1.000  C
  C551     1.0000 0.47038  0.22935  0.79632  Biso   1.000  C
  C552     1.0000 0.63859  0.50000  0.22005  Biso   1.000  C
  C553     1.0000 0.87291  0.12709  0.53461  Biso   1.000  C
  C554     1.0000 0.17273  0.17273  0.50000  Biso   1.000  C
  C555     1.0000 0.20368  0.77065  0.52962  Biso   1.000  C
  C556     1.0000 0.79632  0.52962  0.77065  Biso   1.000  C
  C557     1.0000 0.29047  0.32046  0.50000  Biso   1.000  C
  C558     1.0000 0.74381  0.50000  0.61808  Biso   1.000  C
  C559     1.0000 0.12709  0.12709  0.53461  Biso   1.000  C
  C560     1.0000 0.90207  0.46456  0.90207  Biso   1.000  C
  C561     1.0000 0.32121  0.50000  0.78139  Biso   1.000  C
  C562     1.0000 0.17412  0.79934  0.52977  Biso   1.000  C
  C563     1.0000 0.57439  0.74379  0.50000  Biso   1.000  C
  C564     1.0000 0.79632  0.47038  0.77065  Biso   1.000  C
  C565     1.0000 0.50000  0.77995  0.36141  Biso   1.000  C
  C566     1.0000 0.52977  0.79934  0.17412  Biso   1.000  C
  C567     1.0000 0.70953  0.50000  0.32046  Biso   1.000  C
  C568     1.0000 0.50000  0.69929  0.25361  Biso   1.000  C
  C569     1.0000 0.12709  0.87291  0.46539  Biso   1.000  C
  C570     1.0000 0.09793  0.46456  0.90207  Biso   1.000  C
  C571     1.0000 0.85836  0.50000  0.85836  Biso   1.000  C
  C572     1.0000 0.09793  0.53544  0.09793  Biso   1.000  C
  C573     1.0000 0.50000  0.21861  0.32121  Biso   1.000  C
  C574     1.0000 0.29047  0.50000  0.32046  Biso   1.000  C
  C575     1.0000 0.50000  0.61808  0.25619  Biso   1.000  C
  C576     1.0000 0.08375  0.08375  0.50000  Biso   1.000  C
  C577     1.0000 0.69929  0.50000  0.25361  Biso   1.000  C
  C578     1.0000 0.74639  0.50000  0.30071  Biso   1.000  C
  C579     1.0000 0.14164  0.50000  0.14164  Biso   1.000  C
  C580     1.0000 0.50000  0.17273  0.82727  Biso   1.000  C
  C581     1.0000 0.14164  0.50000  0.85836  Biso   1.000  C
  C582     1.0000 0.30071  0.50000  0.25361  Biso   1.000  C
  C583     1.0000 0.12709  0.46539  0.12709  Biso   1.000  C
  C584     1.0000 0.50000  0.77995  0.63859  Biso   1.000  C
  C585     1.0000 0.87291  0.87291  0.53461  Biso   1.000  C
  C586     1.0000 0.22005  0.36141  0.50000  Biso   1.000  C
  C587     1.0000 0.69929  0.50000  0.74639  Biso   1.000  C
  C588     1.0000 0.21861  0.32121  0.50000  Biso   1.000  C
  C589     1.0000 0.94784  0.50000  0.94784  Biso   1.000  C
  C590     1.0000 0.77995  0.36141  0.50000  Biso   1.000  C
  C591     1.0000 0.25361  0.69929  0.50000  Biso   1.000  C
  C592     1.0000 0.82588  0.47023  0.20066  Biso   1.000  C
  C593     1.0000 0.20066  0.52977  0.17412  Biso   1.000  C
  C594     1.0000 0.25619  0.50000  0.38192  Biso   1.000  C
  C595     1.0000 0.30071  0.25361  0.50000  Biso   1.000  C
  C596     1.0000 0.05216  0.05216  0.50000  Biso   1.000  C
  C597     1.0000 0.79934  0.82588  0.52977  Biso   1.000  C
  C598     1.0000 0.74639  0.30071  0.50000  Biso   1.000  C
  C599     1.0000 0.70953  0.67954  0.50000  Biso   1.000  C
  C600     1.0000 0.50000  0.25361  0.30071  Biso   1.000  C
  C601     1.0000 0.25621  0.50000  0.42561  Biso   1.000  C
  C602     1.0000 0.52962  0.79632  0.77065  Biso   1.000  C
  C603     1.0000 0.47038  0.77065  0.79632  Biso   1.000  C
  C604     1.0000 0.50000  0.63859  0.22005  Biso   1.000  C
  C605     1.0000 0.14164  0.14164  0.50000  Biso   1.000  C
  C606     1.0000 0.61808  0.50000  0.74381  Biso   1.000  C
  C607     1.0000 0.73948  0.50000  0.26052  Biso   1.000  C
  C608     1.0000 0.50000  0.26052  0.26052  Biso   1.000  C
  C609     1.0000 0.26052  0.50000  0.26052  Biso   1.000  C
  C610     1.0000 0.73948  0.73948  0.50000  Biso   1.000  C
  C611     1.0000 0.26052  0.26052  0.50000  Biso   1.000  C
  C612     1.0000 0.50000  0.73948  0.26052  Biso   1.000  C
  C613     1.0000 0.26052  0.50000  0.73948  Biso   1.000  C
  C614     1.0000 0.26052  0.73948  0.50000  Biso   1.000  C
  C615     1.0000 0.50000  0.26052  0.73948  Biso   1.000  C
  C616     1.0000 0.73948  0.50000  0.73948  Biso   1.000  C
  C617     1.0000 0.50000  0.73948  0.73948  Biso   1.000  C
  C618     1.0000 0.73948  0.26052  0.50000  Biso   1.000  C
  C619     1.0000 0.44266  0.77665  0.50000  Biso   1.000  C
  C620     1.0000 0.50000  0.28931  0.44260  Biso   1.000  C
  C621     1.0000 0.53355  0.95935  0.04065  Biso   1.000  C
  C622     1.0000 0.71069  0.44260  0.50000  Biso   1.000  C
  C623     1.0000 0.46645  0.04065  0.04065  Biso   1.000  C
  C624     1.0000 0.46645  0.95935  0.04065  Biso   1.000  C
  C625     1.0000 0.46645  0.04065  0.95935  Biso   1.000  C
  C626     1.0000 0.95935  0.46645  0.95935  Biso   1.000  C
  C627     1.0000 0.55734  0.22335  0.50000  Biso   1.000  C
  C628     1.0000 0.55740  0.71069  0.50000  Biso   1.000  C
  C629     1.0000 0.95935  0.95935  0.53355  Biso   1.000  C
  C630     1.0000 0.04065  0.95935  0.53355  Biso   1.000  C
  C631     1.0000 0.55734  0.50000  0.22335  Biso   1.000  C
  C632     1.0000 0.53355  0.04065  0.04065  Biso   1.000  C
  C633     1.0000 0.04065  0.53355  0.04065  Biso   1.000  C
  C634     1.0000 0.71069  0.50000  0.44260  Biso   1.000  C
  C635     1.0000 0.95935  0.04065  0.53355  Biso   1.000  C
  C636     1.0000 0.22335  0.50000  0.55734  Biso   1.000  C
  C637     1.0000 0.28931  0.44260  0.50000  Biso   1.000  C
  C638     1.0000 0.77665  0.50000  0.44266  Biso   1.000  C
  C639     1.0000 0.50000  0.55734  0.22335  Biso   1.000  C
  C640     1.0000 0.22335  0.50000  0.44266  Biso   1.000  C
  C641     1.0000 0.50000  0.71069  0.55740  Biso   1.000  C
  C642     1.0000 0.44266  0.22335  0.50000  Biso   1.000  C
  C643     1.0000 0.55740  0.28931  0.50000  Biso   1.000  C
  C644     1.0000 0.04065  0.46645  0.04065  Biso   1.000  C
  C645     1.0000 0.28931  0.50000  0.44260  Biso   1.000  C
  C646     1.0000 0.50000  0.55740  0.71069  Biso   1.000  C
  C647     1.0000 0.44266  0.50000  0.77665  Biso   1.000  C
  C648     1.0000 0.95935  0.53355  0.95935  Biso   1.000  C
  C649     1.0000 0.44260  0.71069  0.50000  Biso   1.000  C
  C650     1.0000 0.95935  0.04065  0.46645  Biso   1.000  C
  C651     1.0000 0.28931  0.55740  0.50000  Biso   1.000  C
  C652     1.0000 0.55734  0.77665  0.50000  Biso   1.000  C
  C653     1.0000 0.95935  0.46645  0.04065  Biso   1.000  C
  C654     1.0000 0.77665  0.50000  0.55734  Biso   1.000  C
  C655     1.0000 0.04065  0.95935  0.46645  Biso   1.000  C
  C656     1.0000 0.50000  0.44266  0.77665  Biso   1.000  C
  C657     1.0000 0.71069  0.55740  0.50000  Biso   1.000  C
  C658     1.0000 0.04065  0.04065  0.53355  Biso   1.000  C
  C659     1.0000 0.53355  0.95935  0.95935  Biso   1.000  C
  C660     1.0000 0.50000  0.77665  0.44266  Biso   1.000  C
  C661     1.0000 0.50000  0.44260  0.28931  Biso   1.000  C
  C662     1.0000 0.46645  0.95935  0.95935  Biso   1.000  C
  C663     1.0000 0.55734  0.50000  0.77665  Biso   1.000  C
  C664     1.0000 0.50000  0.28931  0.55740  Biso   1.000  C
  C665     1.0000 0.50000  0.77665  0.55734  Biso   1.000  C
  C666     1.0000 0.44260  0.50000  0.71069  Biso   1.000  C
  C667     1.0000 0.04065  0.04065  0.46645  Biso   1.000  C
  C668     1.0000 0.50000  0.55740  0.28931  Biso   1.000  C
  C669     1.0000 0.22335  0.55734  0.50000  Biso   1.000  C
  C670     1.0000 0.50000  0.44260  0.71069  Biso   1.000  C
  C671     1.0000 0.28931  0.50000  0.55740  Biso   1.000  C
  C672     1.0000 0.77665  0.55734  0.50000  Biso   1.000  C
  C673     1.0000 0.95935  0.53355  0.04065  Biso   1.000  C
  C674     1.0000 0.50000  0.55734  0.77665  Biso   1.000  C
  C675     1.0000 0.55740  0.50000  0.71069  Biso   1.000  C
  C676     1.0000 0.04065  0.46645  0.95935  Biso   1.000  C
  C677     1.0000 0.50000  0.71069  0.44260  Biso   1.000  C
  C678     1.0000 0.44266  0.50000  0.22335  Biso   1.000  C
  C679     1.0000 0.71069  0.50000  0.55740  Biso   1.000  C
  C680     1.0000 0.44260  0.28931  0.50000  Biso   1.000  C
  C681     1.0000 0.53355  0.04065  0.95935  Biso   1.000  C
  C682     1.0000 0.95935  0.95935  0.46645  Biso   1.000  C
  C683     1.0000 0.44260  0.50000  0.28931  Biso   1.000  C
  C684     1.0000 0.50000  0.22335  0.55734  Biso   1.000  C
  C685     1.0000 0.55740  0.50000  0.28931  Biso   1.000  C
  C686     1.0000 0.04065  0.53355  0.95935  Biso   1.000  C
  C687     1.0000 0.77665  0.44266  0.50000  Biso   1.000  C
  C688     1.0000 0.50000  0.44266  0.22335  Biso   1.000  C
  C689     1.0000 0.50000  0.22335  0.44266  Biso   1.000  C
  C690     1.0000 0.22335  0.44266  0.50000  Biso   1.000  C
  O1       1.0000 0.97145  0.44157  0.44157  Biso   1.000  O
  O2       1.0000 0.93255  0.22375  0.94157  Biso   1.000  O
  O3       1.0000 0.93255  0.94157  0.65939  Biso   1.000  O
  O4       1.0000 0.93255  0.73659  0.94157  Biso   1.000  O
  O5       1.0000 0.93255  0.94157  0.22375  Biso   1.000  O
  O6       1.0000 0.93255  0.65939  0.94157  Biso   1.000  O
  O7       1.0000 0.43255  0.90267  0.44157  Biso   1.000  O
  O8       1.0000 0.93255  0.94157  0.73659  Biso   1.000  O
  O9       1.0000 0.72757  0.94157  0.94157  Biso   1.000  O
  O10      1.0000 0.93255  0.94157  0.14655  Biso   1.000  O
  O11      1.0000 0.21473  0.94157  0.94157  Biso   1.000  O
  O12      1.0000 0.89365  0.44157  0.44157  Biso   1.000  O
  O13      1.0000 0.43255  0.98047  0.44157  Biso   1.000  O
  O14      1.0000 0.43255  0.44157  0.98047  Biso   1.000  O
  O15      1.0000 0.93255  0.14655  0.94157  Biso   1.000  O
  O16      1.0000 0.65037  0.94157  0.94157  Biso   1.000  O
  O17      1.0000 0.13753  0.94157  0.94157  Biso   1.000  O
  O18      1.0000 0.43255  0.44157  0.90267  Biso   1.000  O
  O19      1.0000 0.93255  0.13357  0.63617  Biso   1.000  O
  O20      1.0000 0.93255  0.74957  0.24697  Biso   1.000  O
  O21      1.0000 0.74055  0.94157  0.24697  Biso   1.000  O
  O22      1.0000 0.88275  0.24127  0.28617  Biso   1.000  O
  O23      1.0000 0.34415  0.52997  0.00077  Biso   1.000  O
  O24      1.0000 0.27715  0.24127  0.99137  Biso   1.000  O
  O25      1.0000 0.18485  0.99147  0.23657  Biso   1.000  O
  O26      1.0000 0.52095  0.00077  0.52997  Biso   1.000  O
  O27      1.0000 0.80815  0.24497  0.94157  Biso   1.000  O
  O28      1.0000 0.22755  0.68927  0.89167  Biso   1.000  O
  O29      1.0000 0.88275  0.24127  0.59697  Biso   1.000  O
  O30      1.0000 0.88265  0.64657  0.19387  Biso   1.000  O
  O31      1.0000 0.99175  0.35317  0.52997  Biso   1.000  O
  O32      1.0000 0.05825  0.94157  0.75667  Biso   1.000  O
  O33      1.0000 0.68025  0.99147  0.64657  Biso   1.000  O
  O34      1.0000 0.80815  0.94157  0.63817  Biso   1.000  O
  O35      1.0000 0.88265  0.68927  0.64657  Biso   1.000  O
  O36      1.0000 0.58795  0.99137  0.64187  Biso   1.000  O
  O37      1.0000 0.05695  0.94157  0.24497  Biso   1.000  O
  O38      1.0000 0.12455  0.63617  0.94157  Biso   1.000  O
  O39      1.0000 0.99085  0.30477  0.57837  Biso   1.000  O
  O40      1.0000 0.68025  0.23657  0.89167  Biso   1.000  O
  O41      1.0000 0.18485  0.99147  0.64657  Biso   1.000  O
  O42      1.0000 0.74765  0.94157  0.81587  Biso   1.000  O
  O43      1.0000 0.62915  0.81717  0.94157  Biso   1.000  O
  O44      1.0000 0.18485  0.64657  0.99147  Biso   1.000  O
  O45      1.0000 0.27715  0.89177  0.64187  Biso   1.000  O
  O46      1.0000 0.98235  0.24127  0.28617  Biso   1.000  O
  O47      1.0000 0.34415  0.88237  0.52997  Biso   1.000  O
  O48      1.0000 0.93255  0.13357  0.24697  Biso   1.000  O
  O49      1.0000 0.23595  0.81717  0.94157  Biso   1.000  O
  O50      1.0000 0.93255  0.12647  0.81587  Biso   1.000  O
  O51      1.0000 0.93255  0.24497  0.81717  Biso   1.000  O
  O52      1.0000 0.34415  0.35317  0.00077  Biso   1.000  O
  O53      1.0000 0.80815  0.63817  0.94157  Biso   1.000  O
  O54      1.0000 0.05695  0.24497  0.94157  Biso   1.000  O
  O55      1.0000 0.52095  0.00077  0.35317  Biso   1.000  O
  O56      1.0000 0.29575  0.99987  0.30477  Biso   1.000  O
  O57      1.0000 0.29575  0.57837  0.88327  Biso   1.000  O
  O58      1.0000 0.88275  0.64187  0.59697  Biso   1.000  O
  O59      1.0000 0.63285  0.89177  0.28617  Biso   1.000  O
  O60      1.0000 0.68025  0.23657  0.99147  Biso   1.000  O
  O61      1.0000 0.52095  0.35317  0.88237  Biso   1.000  O
  O62      1.0000 0.34415  0.35317  0.88237  Biso   1.000  O
  O63      1.0000 0.63755  0.19387  0.99147  Biso   1.000  O
  O64      1.0000 0.74055  0.63617  0.94157  Biso   1.000  O
  O65      1.0000 0.63285  0.28617  0.89177  Biso   1.000  O
  O66      1.0000 0.27715  0.99137  0.24127  Biso   1.000  O
  O67      1.0000 0.05825  0.94157  0.12647  Biso   1.000  O
  O68      1.0000 0.05825  0.12647  0.94157  Biso   1.000  O
  O69      1.0000 0.22755  0.89167  0.19387  Biso   1.000  O
  O70      1.0000 0.98235  0.64187  0.28617  Biso   1.000  O
  O71      1.0000 0.68025  0.89167  0.64657  Biso   1.000  O
  O72      1.0000 0.98235  0.28617  0.24127  Biso   1.000  O
  O73      1.0000 0.88275  0.59697  0.64187  Biso   1.000  O
  O74      1.0000 0.93255  0.81717  0.24497  Biso   1.000  O
  O75      1.0000 0.87335  0.52997  0.52997  Biso   1.000  O
  O76      1.0000 0.56935  0.88327  0.30477  Biso   1.000  O
  O77      1.0000 0.88265  0.19387  0.23657  Biso   1.000  O
  O78      1.0000 0.63285  0.99137  0.28617  Biso   1.000  O
  O79      1.0000 0.98245  0.64657  0.68927  Biso   1.000  O
  O80      1.0000 0.11745  0.06727  0.94157  Biso   1.000  O
  O81      1.0000 0.62715  0.94157  0.13357  Biso   1.000  O
  O82      1.0000 0.18485  0.64657  0.89167  Biso   1.000  O
  O83      1.0000 0.11745  0.94157  0.81587  Biso   1.000  O
  O84      1.0000 0.23225  0.89177  0.28617  Biso   1.000  O
  O85      1.0000 0.98235  0.64187  0.59697  Biso   1.000  O
  O86      1.0000 0.88265  0.64657  0.68927  Biso   1.000  O
  O87      1.0000 0.58795  0.89177  0.24127  Biso   1.000  O
  O88      1.0000 0.98245  0.64657  0.19387  Biso   1.000  O
  O89      1.0000 0.68025  0.99147  0.23657  Biso   1.000  O
  O90      1.0000 0.99085  0.57837  0.57837  Biso   1.000  O
  O91      1.0000 0.12455  0.94157  0.63617  Biso   1.000  O
  O92      1.0000 0.29575  0.57837  0.99987  Biso   1.000  O
  O93      1.0000 0.18485  0.23657  0.99147  Biso   1.000  O
  O94      1.0000 0.63755  0.19387  0.89167  Biso   1.000  O
  O95      1.0000 0.23795  0.94157  0.74957  Biso   1.000  O
  O96      1.0000 0.63285  0.59697  0.99137  Biso   1.000  O
  O97      1.0000 0.23595  0.94157  0.81717  Biso   1.000  O
  O98      1.0000 0.34415  0.00077  0.52997  Biso   1.000  O
  O99      1.0000 0.62715  0.74957  0.94157  Biso   1.000  O
  O100     1.0000 0.88265  0.23657  0.68927  Biso   1.000  O
  O101     1.0000 0.93255  0.06727  0.12647  Biso   1.000  O
  O102     1.0000 0.29575  0.88327  0.30477  Biso   1.000  O
  O103     1.0000 0.22755  0.19387  0.99147  Biso   1.000  O
  O104     1.0000 0.23225  0.59697  0.89177  Biso   1.000  O
  O105     1.0000 0.11745  0.94157  0.06727  Biso   1.000  O
  O106     1.0000 0.88275  0.28617  0.64187  Biso   1.000  O
  O107     1.0000 0.80685  0.12647  0.94157  Biso   1.000  O
  O108     1.0000 0.87335  0.52997  0.35317  Biso   1.000  O
  O109     1.0000 0.98235  0.28617  0.64187  Biso   1.000  O
  O110     1.0000 0.99085  0.57837  0.30477  Biso   1.000  O
  O111     1.0000 0.68025  0.89167  0.23657  Biso   1.000  O
  O112     1.0000 0.63755  0.99147  0.19387  Biso   1.000  O
  O113     1.0000 0.05695  0.63817  0.94157  Biso   1.000  O
  O114     1.0000 0.23595  0.94157  0.06597  Biso   1.000  O
  O115     1.0000 0.98245  0.23657  0.68927  Biso   1.000  O
  O116     1.0000 0.63285  0.28617  0.99137  Biso   1.000  O
  O117     1.0000 0.80815  0.94157  0.24497  Biso   1.000  O
  O118     1.0000 0.56935  0.57837  0.88327  Biso   1.000  O
  O119     1.0000 0.23795  0.13357  0.94157  Biso   1.000  O
  O120     1.0000 0.62715  0.94157  0.74957  Biso   1.000  O
  O121     1.0000 0.22755  0.99147  0.68927  Biso   1.000  O
  O122     1.0000 0.87425  0.57837  0.57837  Biso   1.000  O
  O123     1.0000 0.56935  0.57837  0.99987  Biso   1.000  O
  O124     1.0000 0.12455  0.24697  0.94157  Biso   1.000  O
  O125     1.0000 0.98235  0.59697  0.64187  Biso   1.000  O
  O126     1.0000 0.62915  0.94157  0.81717  Biso   1.000  O
  O127     1.0000 0.88275  0.59697  0.24127  Biso   1.000  O
  O128     1.0000 0.98245  0.68927  0.64657  Biso   1.000  O
  O129     1.0000 0.80685  0.94157  0.12647  Biso   1.000  O
  O130     1.0000 0.23795  0.74957  0.94157  Biso   1.000  O
  O131     1.0000 0.99175  0.52997  0.35317  Biso   1.000  O
  O132     1.0000 0.23225  0.89177  0.59697  Biso   1.000  O
  O133     1.0000 0.23225  0.28617  0.89177  Biso   1.000  O
  O134     1.0000 0.29575  0.99987  0.57837  Biso   1.000  O
  O135     1.0000 0.99175  0.52997  0.52997  Biso   1.000  O
  O136     1.0000 0.93255  0.74957  0.63617  Biso   1.000  O
  O137     1.0000 0.63755  0.89167  0.19387  Biso   1.000  O
  O138     1.0000 0.58795  0.24127  0.99137  Biso   1.000  O
  O139     1.0000 0.93255  0.24697  0.74957  Biso   1.000  O
  O140     1.0000 0.88275  0.28617  0.24127  Biso   1.000  O
  O141     1.0000 0.22755  0.99147  0.19387  Biso   1.000  O
  O142     1.0000 0.27715  0.24127  0.89177  Biso   1.000  O
  O143     1.0000 0.56935  0.99987  0.30477  Biso   1.000  O
  O144     1.0000 0.88275  0.64187  0.28617  Biso   1.000  O
  O145     1.0000 0.87425  0.30477  0.57837  Biso   1.000  O
  O146     1.0000 0.74765  0.94157  0.06727  Biso   1.000  O
  O147     1.0000 0.93255  0.63617  0.13357  Biso   1.000  O
  O148     1.0000 0.27715  0.64187  0.89177  Biso   1.000  O
  O149     1.0000 0.74765  0.06727  0.94157  Biso   1.000  O
  O150     1.0000 0.58795  0.64187  0.99137  Biso   1.000  O
  O151     1.0000 0.93255  0.75667  0.81587  Biso   1.000  O
  O152     1.0000 0.62915  0.94157  0.06597  Biso   1.000  O
  O153     1.0000 0.93255  0.06597  0.63817  Biso   1.000  O
  O154     1.0000 0.27715  0.64187  0.99137  Biso   1.000  O
  O155     1.0000 0.05825  0.75667  0.94157  Biso   1.000  O
  O156     1.0000 0.88265  0.68927  0.23657  Biso   1.000  O
  O157     1.0000 0.63285  0.99137  0.59697  Biso   1.000  O
  O158     1.0000 0.93255  0.63617  0.74957  Biso   1.000  O
  O159     1.0000 0.98245  0.23657  0.19387  Biso   1.000  O
  O160     1.0000 0.63285  0.89177  0.59697  Biso   1.000  O
  O161     1.0000 0.18485  0.89167  0.23657  Biso   1.000  O
  O162     1.0000 0.22755  0.19387  0.89167  Biso   1.000  O
  O163     1.0000 0.56935  0.99987  0.57837  Biso   1.000  O
  O164     1.0000 0.62915  0.06597  0.94157  Biso   1.000  O
  O165     1.0000 0.87425  0.57837  0.30477  Biso   1.000  O
  O166     1.0000 0.93255  0.63817  0.81717  Biso   1.000  O
  O167     1.0000 0.63285  0.59697  0.89177  Biso   1.000  O
  O168     1.0000 0.34415  0.52997  0.88237  Biso   1.000  O
  O169     1.0000 0.18485  0.23657  0.89167  Biso   1.000  O
  O170     1.0000 0.29575  0.30477  0.88327  Biso   1.000  O
  O171     1.0000 0.18485  0.89167  0.64657  Biso   1.000  O
  O172     1.0000 0.74055  0.24697  0.94157  Biso   1.000  O
  O173     1.0000 0.05695  0.94157  0.63817  Biso   1.000  O
  O174     1.0000 0.56935  0.88327  0.57837  Biso   1.000  O
  O175     1.0000 0.23595  0.06597  0.94157  Biso   1.000  O
  O176     1.0000 0.52095  0.35317  0.00077  Biso   1.000  O
  O177     1.0000 0.23225  0.99137  0.28617  Biso   1.000  O
  O178     1.0000 0.23225  0.59697  0.99137  Biso   1.000  O
  O179     1.0000 0.58795  0.99137  0.24127  Biso   1.000  O
  O180     1.0000 0.27715  0.99137  0.64187  Biso   1.000  O
  O181     1.0000 0.99175  0.35317  0.35317  Biso   1.000  O
  O182     1.0000 0.22755  0.68927  0.99147  Biso   1.000  O
  O183     1.0000 0.93255  0.24697  0.13357  Biso   1.000  O
  O184     1.0000 0.56935  0.30477  0.88327  Biso   1.000  O
  O185     1.0000 0.58795  0.24127  0.89177  Biso   1.000  O
  O186     1.0000 0.98235  0.24127  0.59697  Biso   1.000  O
  O187     1.0000 0.52095  0.52997  0.00077  Biso   1.000  O
  O188     1.0000 0.74765  0.81587  0.94157  Biso   1.000  O
  O189     1.0000 0.23795  0.94157  0.13357  Biso   1.000  O
  O190     1.0000 0.99085  0.30477  0.30477  Biso   1.000  O
  O191     1.0000 0.63755  0.99147  0.68927  Biso   1.000  O
  O192     1.0000 0.93255  0.12647  0.06727  Biso   1.000  O
  O193     1.0000 0.98245  0.68927  0.23657  Biso   1.000  O
  O194     1.0000 0.98245  0.19387  0.23657  Biso   1.000  O
  O195     1.0000 0.87425  0.30477  0.30477  Biso   1.000  O
  O196     1.0000 0.87335  0.35317  0.35317  Biso   1.000  O
  O197     1.0000 0.93255  0.81587  0.75667  Biso   1.000  O
  O198     1.0000 0.29575  0.88327  0.57837  Biso   1.000  O
  O199     1.0000 0.93255  0.06727  0.75667  Biso   1.000  O
  O200     1.0000 0.68025  0.64657  0.99147  Biso   1.000  O
  O201     1.0000 0.27715  0.89177  0.24127  Biso   1.000  O
  O202     1.0000 0.63755  0.68927  0.99147  Biso   1.000  O
  O203     1.0000 0.52095  0.52997  0.88237  Biso   1.000  O
  O204     1.0000 0.93255  0.81587  0.12647  Biso   1.000  O
  O205     1.0000 0.56935  0.30477  0.99987  Biso   1.000  O
  O206     1.0000 0.12455  0.94157  0.24697  Biso   1.000  O
  O207     1.0000 0.98245  0.19387  0.64657  Biso   1.000  O
  O208     1.0000 0.22755  0.89167  0.68927  Biso   1.000  O
  O209     1.0000 0.93255  0.75667  0.06727  Biso   1.000  O
  O210     1.0000 0.93255  0.63817  0.06597  Biso   1.000  O
  O211     1.0000 0.74055  0.94157  0.63617  Biso   1.000  O
  O212     1.0000 0.23225  0.99137  0.59697  Biso   1.000  O
  O213     1.0000 0.52095  0.88237  0.52997  Biso   1.000  O
  O214     1.0000 0.68025  0.64657  0.89167  Biso   1.000  O
  O215     1.0000 0.11745  0.81587  0.94157  Biso   1.000  O
  O216     1.0000 0.34415  0.88237  0.35317  Biso   1.000  O
  O217     1.0000 0.80685  0.75667  0.94157  Biso   1.000  O
  O218     1.0000 0.34415  0.00077  0.35317  Biso   1.000  O
  O219     1.0000 0.62715  0.13357  0.94157  Biso   1.000  O
  O220     1.0000 0.58795  0.89177  0.64187  Biso   1.000  O
  O221     1.0000 0.23225  0.28617  0.99137  Biso   1.000  O
  O222     1.0000 0.93255  0.06597  0.24497  Biso   1.000  O
  O223     1.0000 0.63755  0.89167  0.68927  Biso   1.000  O
  O224     1.0000 0.88265  0.23657  0.19387  Biso   1.000  O
  O225     1.0000 0.98235  0.59697  0.24127  Biso   1.000  O
  O226     1.0000 0.52095  0.88237  0.35317  Biso   1.000  O
  O227     1.0000 0.63755  0.68927  0.89167  Biso   1.000  O
  O228     1.0000 0.88265  0.19387  0.64657  Biso   1.000  O
  O229     1.0000 0.58795  0.64187  0.89177  Biso   1.000  O
  O230     1.0000 0.93255  0.81717  0.63817  Biso   1.000  O
  O231     1.0000 0.93255  0.24497  0.06597  Biso   1.000  O
  O232     1.0000 0.29575  0.30477  0.99987  Biso   1.000  O
  O233     1.0000 0.87335  0.35317  0.52997  Biso   1.000  O
  O234     1.0000 0.80685  0.94157  0.75667  Biso   1.000  O
  O235     1.0000 0.66297  0.94157  0.21115  Biso   1.000  O
  O236     1.0000 0.20320  0.23789  0.91195  Biso   1.000  O
  O237     1.0000 0.93255  0.12036  0.66018  Biso   1.000  O
  O238     1.0000 0.63321  0.26745  0.91180  Biso   1.000  O
  O239     1.0000 0.11134  0.94157  0.66018  Biso   1.000  O
  O240     1.0000 0.63321  0.91180  0.26745  Biso   1.000  O
  O241     1.0000 0.65116  0.94157  0.76278  Biso   1.000  O
  O242     1.0000 0.93255  0.21115  0.67199  Biso   1.000  O
  O243     1.0000 0.66190  0.64525  0.91195  Biso   1.000  O
  O244     1.0000 0.21250  0.08016  0.94157  Biso   1.000  O
  O245     1.0000 0.93255  0.01596  0.18536  Biso   1.000  O
  O246     1.0000 0.20213  0.94157  0.21115  Biso   1.000  O
  O247     1.0000 0.60667  0.64223  0.91180  Biso   1.000  O
  O248     1.0000 0.48471  0.94157  0.49373  Biso   1.000  O
  O249     1.0000 0.89794  0.56866  0.56866  Biso   1.000  O
  O250     1.0000 0.93255  0.80298  0.22152  Biso   1.000  O
  O251     1.0000 0.60528  0.94157  0.26884  Biso   1.000  O
  O252     1.0000 0.81447  0.94157  0.69776  Biso   1.000  O
  O253     1.0000 0.25843  0.97134  0.24091  Biso   1.000  O
  O254     1.0000 0.14138  0.80258  0.94157  Biso   1.000  O
  O255     1.0000 0.38039  0.49373  0.94157  Biso   1.000  O
  O256     1.0000 0.96217  0.23789  0.67092  Biso   1.000  O
  O257     1.0000 0.89794  0.56866  0.31448  Biso   1.000  O
  O258     1.0000 0.63321  0.61569  0.97134  Biso   1.000  O
  O259     1.0000 0.96232  0.61569  0.24091  Biso   1.000  O
  O260     1.0000 0.93255  0.73274  0.08056  Biso   1.000  O
  O261     1.0000 0.22887  0.67092  0.91195  Biso   1.000  O
  O262     1.0000 0.93255  0.69776  0.05965  Biso   1.000  O
  O263     1.0000 0.25843  0.64223  0.97134  Biso   1.000  O
  O264     1.0000 0.93255  0.58321  0.58321  Biso   1.000  O
  O265     1.0000 0.93255  0.38941  0.38941  Biso   1.000  O
  O266     1.0000 0.63623  0.91195  0.67092  Biso   1.000  O
  O267     1.0000 0.21250  0.80298  0.94157  Biso   1.000  O
  O268     1.0000 0.25843  0.97134  0.64223  Biso   1.000  O
  O269     1.0000 0.93255  0.80258  0.15040  Biso   1.000  O
  O270     1.0000 0.14208  0.12111  0.94157  Biso   1.000  O
  O271     1.0000 0.17894  0.14086  0.94157  Biso   1.000  O
  O272     1.0000 0.07114  0.22152  0.94157  Biso   1.000  O
  O273     1.0000 0.14138  0.94157  0.80258  Biso   1.000  O
  O274     1.0000 0.60667  0.91180  0.64223  Biso   1.000  O
  O275     1.0000 0.93255  0.26884  0.26884  Biso   1.000  O
  O276     1.0000 0.93255  0.76278  0.66018  Biso   1.000  O
  O277     1.0000 0.33462  0.90613  0.34364  Biso   1.000  O
  O278     1.0000 0.60528  0.26884  0.94157  Biso   1.000  O
  O279     1.0000 0.38039  0.94157  0.49373  Biso   1.000  O
  O280     1.0000 0.20320  0.91195  0.23789  Biso   1.000  O
  O281     1.0000 0.17636  0.94157  0.05965  Biso   1.000  O
  O282     1.0000 0.17634  0.86718  0.94157  Biso   1.000  O
  O283     1.0000 0.90293  0.23789  0.67092  Biso   1.000  O
  O284     1.0000 0.90293  0.23789  0.21222  Biso   1.000  O
  O285     1.0000 0.72372  0.94157  0.80258  Biso   1.000  O
  O286     1.0000 0.22887  0.91195  0.21222  Biso   1.000  O
  O287     1.0000 0.68874  0.94157  0.82349  Biso   1.000  O
  O288     1.0000 0.79396  0.94157  0.22152  Biso   1.000  O
  O289     1.0000 0.68876  0.94157  0.01596  Biso   1.000  O
  O290     1.0000 0.93255  0.21115  0.21115  Biso   1.000  O
  O291     1.0000 0.20320  0.97119  0.64525  Biso   1.000  O
  O292     1.0000 0.72372  0.08056  0.94157  Biso   1.000  O
  O293     1.0000 0.68616  0.14086  0.94157  Biso   1.000  O
  O294     1.0000 0.07154  0.73274  0.94157  Biso   1.000  O
  O295     1.0000 0.00694  0.94157  0.69778  Biso   1.000  O
  O296     1.0000 0.25843  0.64223  0.91180  Biso   1.000  O
  O297     1.0000 0.48471  0.94157  0.38941  Biso   1.000  O
  O298     1.0000 0.34880  0.35782  0.94157  Biso   1.000  O
  O299     1.0000 0.89794  0.31448  0.31448  Biso   1.000  O
  O300     1.0000 0.93255  0.73204  0.12111  Biso   1.000  O
  O301     1.0000 0.05063  0.94157  0.18538  Biso   1.000  O
  O302     1.0000 0.57419  0.94157  0.29993  Biso   1.000  O
  O303     1.0000 0.72302  0.94157  0.76203  Biso   1.000  O
  O304     1.0000 0.17634  0.01596  0.94157  Biso   1.000  O
  O305     1.0000 0.96217  0.21222  0.23789  Biso   1.000  O
  O306     1.0000 0.11134  0.22296  0.94157  Biso   1.000  O
  O307     1.0000 0.65260  0.94157  0.08016  Biso   1.000  O
  O308     1.0000 0.96799  0.53950  0.53950  Biso   1.000  O
  O309     1.0000 0.53048  0.34364  0.90613  Biso   1.000  O
  O310     1.0000 0.68616  0.94157  0.74228  Biso   1.000  O
  O311     1.0000 0.68874  0.82349  0.94157  Biso   1.000  O
  O312     1.0000 0.25982  0.94157  0.61430  Biso   1.000  O
  O313     1.0000 0.22887  0.97119  0.21222  Biso   1.000  O
  O314     1.0000 0.96232  0.64223  0.26745  Biso   1.000  O
  O315     1.0000 0.21394  0.12036  0.94157  Biso   1.000  O
  O316     1.0000 0.07154  0.94157  0.73274  Biso   1.000  O
  O317     1.0000 0.93255  0.22152  0.08016  Biso   1.000  O
  O318     1.0000 0.93255  0.08056  0.15040  Biso   1.000  O
  O319     1.0000 0.73326  0.94157  0.69518  Biso   1.000  O
  O320     1.0000 0.93255  0.74228  0.18796  Biso   1.000  O
  O321     1.0000 0.07114  0.66162  0.94157  Biso   1.000  O
  O322     1.0000 0.81447  0.94157  0.18538  Biso   1.000  O
  O323     1.0000 0.65260  0.94157  0.80298  Biso   1.000  O
  O324     1.0000 0.93255  0.35782  0.52532  Biso   1.000  O
  O325     1.0000 0.33462  0.34364  0.90613  Biso   1.000  O
  O326     1.0000 0.90293  0.64525  0.21222  Biso   1.000  O
  O327     1.0000 0.85816  0.69778  0.94157  Biso   1.000  O
  O328     1.0000 0.96799  0.53950  0.34364  Biso   1.000  O
  O329     1.0000 0.25843  0.91180  0.24091  Biso   1.000  O
  O330     1.0000 0.21394  0.94157  0.12036  Biso   1.000  O
  O331     1.0000 0.53048  0.90613  0.34364  Biso   1.000  O
  O332     1.0000 0.33462  0.34364  0.97701  Biso   1.000  O
  O333     1.0000 0.93255  0.18536  0.86718  Biso   1.000  O
  O334     1.0000 0.20213  0.67199  0.94157  Biso   1.000  O
  O335     1.0000 0.21394  0.94157  0.76278  Biso   1.000  O
  O336     1.0000 0.60528  0.61430  0.94157  Biso   1.000  O
  O337     1.0000 0.63623  0.67092  0.91195  Biso   1.000  O
  O338     1.0000 0.23189  0.91180  0.61569  Biso   1.000  O
  O339     1.0000 0.48471  0.49373  0.94157  Biso   1.000  O
  O340     1.0000 0.60528  0.94157  0.61430  Biso   1.000  O
  O341     1.0000 0.66190  0.64525  0.97119  Biso   1.000  O
  O342     1.0000 0.89711  0.34364  0.53950  Biso   1.000  O
  O343     1.0000 0.96217  0.67092  0.64525  Biso   1.000  O
  O344     1.0000 0.22887  0.97119  0.67092  Biso   1.000  O
  O345     1.0000 0.75376  0.66018  0.94157  Biso   1.000  O
  O346     1.0000 0.63321  0.91180  0.61569  Biso   1.000  O
  O347     1.0000 0.72372  0.80258  0.94157  Biso   1.000  O
  O348     1.0000 0.90278  0.64223  0.26745  Biso   1.000  O
  O349     1.0000 0.75376  0.22296  0.94157  Biso   1.000  O
  O350     1.0000 0.33462  0.97701  0.34364  Biso   1.000  O
  O351     1.0000 0.90293  0.64525  0.67092  Biso   1.000  O
  O352     1.0000 0.55964  0.56866  0.97618  Biso   1.000  O
  O353     1.0000 0.13184  0.69518  0.94157  Biso   1.000  O
  O354     1.0000 0.23189  0.26745  0.97134  Biso   1.000  O
  O355     1.0000 0.85816  0.94157  0.69778  Biso   1.000  O
  O356     1.0000 0.96716  0.56866  0.56866  Biso   1.000  O
  O357     1.0000 0.90278  0.24091  0.61569  Biso   1.000  O
  O358     1.0000 0.66190  0.91195  0.64525  Biso   1.000  O
  O359     1.0000 0.96217  0.64525  0.67092  Biso   1.000  O
  O360     1.0000 0.23189  0.26745  0.91180  Biso   1.000  O
  O361     1.0000 0.22887  0.91195  0.67092  Biso   1.000  O
  O362     1.0000 0.79356  0.15040  0.94157  Biso   1.000  O
  O363     1.0000 0.90293  0.67092  0.23789  Biso   1.000  O
  O364     1.0000 0.93255  0.49373  0.49373  Biso   1.000  O
  O365     1.0000 0.93255  0.66018  0.12036  Biso   1.000  O
  O366     1.0000 0.65116  0.94157  0.12036  Biso   1.000  O
  O367     1.0000 0.05063  0.18538  0.94157  Biso   1.000  O
  O368     1.0000 0.55964  0.90696  0.56866  Biso   1.000  O
  O369     1.0000 0.72372  0.94157  0.08056  Biso   1.000  O
  O370     1.0000 0.14208  0.94157  0.76203  Biso   1.000  O
  O371     1.0000 0.53048  0.97701  0.53950  Biso   1.000  O
  O372     1.0000 0.79396  0.22152  0.94157  Biso   1.000  O
  O373     1.0000 0.72302  0.12111  0.94157  Biso   1.000  O
  O374     1.0000 0.25843  0.24091  0.97134  Biso   1.000  O
  O375     1.0000 0.75301  0.15110  0.94157  Biso   1.000  O
  O376     1.0000 0.75301  0.73204  0.94157  Biso   1.000  O
  O377     1.0000 0.66190  0.97119  0.64525  Biso   1.000  O
  O378     1.0000 0.90278  0.64223  0.61569  Biso   1.000  O
  O379     1.0000 0.90278  0.61569  0.64223  Biso   1.000  O
  O380     1.0000 0.93255  0.14086  0.18796  Biso   1.000  O
  O381     1.0000 0.85816  0.18536  0.94157  Biso   1.000  O
  O382     1.0000 0.07154  0.94157  0.15040  Biso   1.000  O
  O383     1.0000 0.93255  0.69776  0.82349  Biso   1.000  O
  O384     1.0000 0.30546  0.90696  0.31448  Biso   1.000  O
  O385     1.0000 0.53048  0.53950  0.90613  Biso   1.000  O
  O386     1.0000 0.63623  0.21222  0.97119  Biso   1.000  O
  O387     1.0000 0.65116  0.12036  0.94157  Biso   1.000  O
  O388     1.0000 0.57419  0.58321  0.94157  Biso   1.000  O
  O389     1.0000 0.00694  0.94157  0.18536  Biso   1.000  O
  O390     1.0000 0.93255  0.67199  0.21115  Biso   1.000  O
  O391     1.0000 0.60667  0.91180  0.24091  Biso   1.000  O
  O392     1.0000 0.30546  0.31448  0.90696  Biso   1.000  O
  O393     1.0000 0.90278  0.24091  0.26745  Biso   1.000  O
  O394     1.0000 0.93255  0.15040  0.08056  Biso   1.000  O
  O395     1.0000 0.17894  0.94157  0.74228  Biso   1.000  O
  O396     1.0000 0.51630  0.52532  0.94157  Biso   1.000  O
  O397     1.0000 0.17634  0.94157  0.01596  Biso   1.000  O
  O398     1.0000 0.63321  0.26745  0.97134  Biso   1.000  O
  O399     1.0000 0.90293  0.67092  0.64525  Biso   1.000  O
  O400     1.0000 0.66190  0.91195  0.23789  Biso   1.000  O
  O401     1.0000 0.22887  0.67092  0.97119  Biso   1.000  O
  O402     1.0000 0.96232  0.26745  0.24091  Biso   1.000  O
  O403     1.0000 0.89794  0.31448  0.56866  Biso   1.000  O
  O404     1.0000 0.96232  0.61569  0.64223  Biso   1.000  O
  O405     1.0000 0.34880  0.94157  0.52532  Biso   1.000  O
  O406     1.0000 0.93255  0.15110  0.76203  Biso   1.000  O
  O407     1.0000 0.60667  0.64223  0.97134  Biso   1.000  O
  O408     1.0000 0.14208  0.76203  0.94157  Biso   1.000  O
  O409     1.0000 0.68874  0.05965  0.94157  Biso   1.000  O
  O410     1.0000 0.93255  0.69778  0.01596  Biso   1.000  O
  O411     1.0000 0.22887  0.21222  0.97119  Biso   1.000  O
  O412     1.0000 0.55964  0.97618  0.31448  Biso   1.000  O
  O413     1.0000 0.96716  0.31448  0.31448  Biso   1.000  O
  O414     1.0000 0.17636  0.05965  0.94157  Biso   1.000  O
  O415     1.0000 0.90293  0.21222  0.23789  Biso   1.000  O
  O416     1.0000 0.93255  0.15110  0.12111  Biso   1.000  O
  O417     1.0000 0.79396  0.94157  0.66162  Biso   1.000  O
  O418     1.0000 0.79356  0.94157  0.15040  Biso   1.000  O
  O419     1.0000 0.93255  0.08056  0.73274  Biso   1.000  O
  O420     1.0000 0.63623  0.91195  0.21222  Biso   1.000  O
  O421     1.0000 0.93255  0.52532  0.35782  Biso   1.000  O
  O422     1.0000 0.07154  0.15040  0.94157  Biso   1.000  O
  O423     1.0000 0.85816  0.94157  0.18536  Biso   1.000  O
  O424     1.0000 0.75376  0.94157  0.22296  Biso   1.000  O
  O425     1.0000 0.23189  0.61569  0.91180  Biso   1.000  O
  O426     1.0000 0.93255  0.66018  0.76278  Biso   1.000  O
  O427     1.0000 0.29091  0.29993  0.94157  Biso   1.000  O
  O428     1.0000 0.93255  0.52532  0.52532  Biso   1.000  O
  O429     1.0000 0.23189  0.97134  0.26745  Biso   1.000  O
  O430     1.0000 0.93255  0.73204  0.76203  Biso   1.000  O
  O431     1.0000 0.00694  0.69778  0.94157  Biso   1.000  O
  O432     1.0000 0.55964  0.56866  0.90696  Biso   1.000  O
  O433     1.0000 0.05063  0.94157  0.69776  Biso   1.000  O
  O434     1.0000 0.93255  0.12036  0.22296  Biso   1.000  O
  O435     1.0000 0.93255  0.22296  0.76278  Biso   1.000  O
  O436     1.0000 0.14138  0.08056  0.94157  Biso   1.000  O
  O437     1.0000 0.73326  0.18796  0.94157  Biso   1.000  O
  O438     1.0000 0.66190  0.23789  0.91195  Biso   1.000  O
  O439     1.0000 0.68876  0.01596  0.94157  Biso   1.000  O
  O440     1.0000 0.93255  0.82349  0.69776  Biso   1.000  O
  O441     1.0000 0.22887  0.21222  0.91195  Biso   1.000  O
  O442     1.0000 0.66297  0.67199  0.94157  Biso   1.000  O
  O443     1.0000 0.21250  0.94157  0.08016  Biso   1.000  O
  O444     1.0000 0.30546  0.31448  0.97618  Biso   1.000  O
  O445     1.0000 0.20213  0.21115  0.94157  Biso   1.000  O
  O446     1.0000 0.93255  0.80298  0.66162  Biso   1.000  O
  O447     1.0000 0.29091  0.58321  0.94157  Biso   1.000  O
  O448     1.0000 0.93255  0.49373  0.38941  Biso   1.000  O
  O449     1.0000 0.93255  0.76278  0.22296  Biso   1.000  O
  O450     1.0000 0.93255  0.15040  0.80258  Biso   1.000  O
  O451     1.0000 0.81447  0.18538  0.94157  Biso   1.000  O
  O452     1.0000 0.25843  0.24091  0.91180  Biso   1.000  O
  O453     1.0000 0.93255  0.12111  0.15110  Biso   1.000  O
  O454     1.0000 0.34880  0.52532  0.94157  Biso   1.000  O
  O455     1.0000 0.93255  0.69778  0.86718  Biso   1.000  O
  O456     1.0000 0.20320  0.64525  0.91195  Biso   1.000  O
  O457     1.0000 0.53048  0.90613  0.53950  Biso   1.000  O
  O458     1.0000 0.93255  0.61430  0.61430  Biso   1.000  O
  O459     1.0000 0.53048  0.97701  0.34364  Biso   1.000  O
  O460     1.0000 0.23189  0.97134  0.61569  Biso   1.000  O
  O461     1.0000 0.96232  0.26745  0.64223  Biso   1.000  O
  O462     1.0000 0.20320  0.64525  0.97119  Biso   1.000  O
  O463     1.0000 0.23189  0.91180  0.26745  Biso   1.000  O
  O464     1.0000 0.17634  0.94157  0.86718  Biso   1.000  O
  O465     1.0000 0.90278  0.26745  0.64223  Biso   1.000  O
  O466     1.0000 0.60667  0.24091  0.97134  Biso   1.000  O
  O467     1.0000 0.48471  0.38941  0.94157  Biso   1.000  O
  O468     1.0000 0.68874  0.94157  0.05965  Biso   1.000  O
  O469     1.0000 0.51630  0.35782  0.94157  Biso   1.000  O
  O470     1.0000 0.13184  0.18796  0.94157  Biso   1.000  O
  O471     1.0000 0.21250  0.94157  0.80298  Biso   1.000  O
  O472     1.0000 0.96232  0.24091  0.61569  Biso   1.000  O
  O473     1.0000 0.11209  0.94157  0.73204  Biso   1.000  O
  O474     1.0000 0.93255  0.18536  0.01596  Biso   1.000  O
  O475     1.0000 0.20213  0.94157  0.67199  Biso   1.000  O
  O476     1.0000 0.00694  0.18536  0.94157  Biso   1.000  O
  O477     1.0000 0.68876  0.86718  0.94157  Biso   1.000  O
  O478     1.0000 0.93255  0.01596  0.69778  Biso   1.000  O
  O479     1.0000 0.63623  0.67092  0.97119  Biso   1.000  O
  O480     1.0000 0.30546  0.56866  0.97618  Biso   1.000  O
  O481     1.0000 0.55964  0.31448  0.90696  Biso   1.000  O
  O482     1.0000 0.93255  0.08016  0.66162  Biso   1.000  O
  O483     1.0000 0.79356  0.73274  0.94157  Biso   1.000  O
  O484     1.0000 0.17636  0.82349  0.94157  Biso   1.000  O
  O485     1.0000 0.65116  0.76278  0.94157  Biso   1.000  O
  O486     1.0000 0.93255  0.80258  0.73274  Biso   1.000  O
  O487     1.0000 0.51630  0.94157  0.35782  Biso   1.000  O
  O488     1.0000 0.25982  0.61430  0.94157  Biso   1.000  O
  O489     1.0000 0.93255  0.86718  0.69778  Biso   1.000  O
  O490     1.0000 0.66297  0.94157  0.67199  Biso   1.000  O
  O491     1.0000 0.51630  0.94157  0.52532  Biso   1.000  O
  O492     1.0000 0.93255  0.18796  0.14086  Biso   1.000  O
  O493     1.0000 0.93255  0.35782  0.35782  Biso   1.000  O
  O494     1.0000 0.90278  0.26745  0.24091  Biso   1.000  O
  O495     1.0000 0.96217  0.64525  0.21222  Biso   1.000  O
  O496     1.0000 0.93255  0.12111  0.73204  Biso   1.000  O
  O497     1.0000 0.23189  0.61569  0.97134  Biso   1.000  O
  O498     1.0000 0.93255  0.18538  0.05965  Biso   1.000  O
  O499     1.0000 0.75301  0.94157  0.15110  Biso   1.000  O
  O500     1.0000 0.57419  0.29993  0.94157  Biso   1.000  O
  O501     1.0000 0.33462  0.53950  0.97701  Biso   1.000  O
  O502     1.0000 0.60667  0.24091  0.91180  Biso   1.000  O
  O503     1.0000 0.53048  0.34364  0.97701  Biso   1.000  O
  O504     1.0000 0.93255  0.14086  0.69518  Biso   1.000  O
  O505     1.0000 0.96716  0.31448  0.56866  Biso   1.000  O
  O506     1.0000 0.33462  0.97701  0.53950  Biso   1.000  O
  O507     1.0000 0.60667  0.97134  0.24091  Biso   1.000  O
  O508     1.0000 0.05063  0.69776  0.94157  Biso   1.000  O
  O509     1.0000 0.96217  0.67092  0.23789  Biso   1.000  O
  O510     1.0000 0.53048  0.53950  0.97701  Biso   1.000  O
  O511     1.0000 0.17636  0.94157  0.82349  Biso   1.000  O
  O512     1.0000 0.55964  0.31448  0.97618  Biso   1.000  O
  O513     1.0000 0.93255  0.73274  0.80258  Biso   1.000  O
  O514     1.0000 0.29091  0.94157  0.58321  Biso   1.000  O
  O515     1.0000 0.93255  0.08016  0.22152  Biso   1.000  O
  O516     1.0000 0.93255  0.26884  0.61430  Biso   1.000  O
  O517     1.0000 0.57419  0.94157  0.58321  Biso   1.000  O
  O518     1.0000 0.11134  0.66018  0.94157  Biso   1.000  O
  O519     1.0000 0.93255  0.66162  0.08016  Biso   1.000  O
  O520     1.0000 0.75376  0.94157  0.66018  Biso   1.000  O
  O521     1.0000 0.89711  0.53950  0.53950  Biso   1.000  O
  O522     1.0000 0.38039  0.38941  0.94157  Biso   1.000  O
  O523     1.0000 0.66297  0.21115  0.94157  Biso   1.000  O
  O524     1.0000 0.93255  0.22152  0.80298  Biso   1.000  O
  O525     1.0000 0.72302  0.76203  0.94157  Biso   1.000  O
  O526     1.0000 0.33462  0.90613  0.53950  Biso   1.000  O
  O527     1.0000 0.14138  0.94157  0.08056  Biso   1.000  O
  O528     1.0000 0.30546  0.56866  0.90696  Biso   1.000  O
  O529     1.0000 0.13184  0.94157  0.18796  Biso   1.000  O
  O530     1.0000 0.33462  0.53950  0.90613  Biso   1.000  O
  O531     1.0000 0.68616  0.94157  0.14086  Biso   1.000  O
  O532     1.0000 0.96232  0.24091  0.26745  Biso   1.000  O
  O533     1.0000 0.93255  0.05965  0.18538  Biso   1.000  O
  O534     1.0000 0.20320  0.97119  0.23789  Biso   1.000  O
  O535     1.0000 0.25843  0.91180  0.64223  Biso   1.000  O
  O536     1.0000 0.89711  0.34364  0.34364  Biso   1.000  O
  O537     1.0000 0.93255  0.67199  0.67199  Biso   1.000  O
  O538     1.0000 0.93255  0.61430  0.26884  Biso   1.000  O
  O539     1.0000 0.30546  0.90696  0.56866  Biso   1.000  O
  O540     1.0000 0.72302  0.94157  0.12111  Biso   1.000  O
  O541     1.0000 0.63321  0.97134  0.61569  Biso   1.000  O
  O542     1.0000 0.63623  0.97119  0.21222  Biso   1.000  O
  O543     1.0000 0.96217  0.23789  0.21222  Biso   1.000  O
  O544     1.0000 0.11209  0.73204  0.94157  Biso   1.000  O
  O545     1.0000 0.63623  0.97119  0.67092  Biso   1.000  O
  O546     1.0000 0.68616  0.74228  0.94157  Biso   1.000  O
  O547     1.0000 0.20320  0.91195  0.64525  Biso   1.000  O
  O548     1.0000 0.79356  0.94157  0.73274  Biso   1.000  O
  O549     1.0000 0.11209  0.15110  0.94157  Biso   1.000  O
  O550     1.0000 0.14208  0.94157  0.12111  Biso   1.000  O
  O551     1.0000 0.20320  0.23789  0.97119  Biso   1.000  O
  O552     1.0000 0.93255  0.66162  0.80298  Biso   1.000  O
  O553     1.0000 0.30546  0.97618  0.56866  Biso   1.000  O
  O554     1.0000 0.25982  0.94157  0.26884  Biso   1.000  O
  O555     1.0000 0.66190  0.97119  0.23789  Biso   1.000  O
  O556     1.0000 0.90293  0.21222  0.64525  Biso   1.000  O
  O557     1.0000 0.11209  0.94157  0.15110  Biso   1.000  O
  O558     1.0000 0.93255  0.05965  0.69776  Biso   1.000  O
  O559     1.0000 0.30546  0.97618  0.31448  Biso   1.000  O
  O560     1.0000 0.96799  0.34364  0.53950  Biso   1.000  O
  O561     1.0000 0.93255  0.22296  0.12036  Biso   1.000  O
  O562     1.0000 0.63321  0.97134  0.26745  Biso   1.000  O
  O563     1.0000 0.68876  0.94157  0.86718  Biso   1.000  O
  O564     1.0000 0.96217  0.21222  0.64525  Biso   1.000  O
  O565     1.0000 0.65260  0.80298  0.94157  Biso   1.000  O
  O566     1.0000 0.63321  0.61569  0.91180  Biso   1.000  O
  O567     1.0000 0.93255  0.76203  0.73204  Biso   1.000  O
  O568     1.0000 0.73326  0.69518  0.94157  Biso   1.000  O
  O569     1.0000 0.55964  0.90696  0.31448  Biso   1.000  O
  O570     1.0000 0.96799  0.34364  0.34364  Biso   1.000  O
  O571     1.0000 0.93255  0.29993  0.58321  Biso   1.000  O
  O572     1.0000 0.89711  0.53950  0.34364  Biso   1.000  O
  O573     1.0000 0.21394  0.76278  0.94157  Biso   1.000  O
  O574     1.0000 0.93255  0.76203  0.15110  Biso   1.000  O
  O575     1.0000 0.81447  0.69776  0.94157  Biso   1.000  O
  O576     1.0000 0.34880  0.94157  0.35782  Biso   1.000  O
  O577     1.0000 0.93255  0.69518  0.74228  Biso   1.000  O
  O578     1.0000 0.93255  0.74228  0.69518  Biso   1.000  O
  O579     1.0000 0.93255  0.58321  0.29993  Biso   1.000  O
  O580     1.0000 0.25982  0.26884  0.94157  Biso   1.000  O
  O581     1.0000 0.93255  0.29993  0.29993  Biso   1.000  O
  O582     1.0000 0.93255  0.69518  0.14086  Biso   1.000  O
  O583     1.0000 0.96716  0.56866  0.31448  Biso   1.000  O
  O584     1.0000 0.65260  0.08016  0.94157  Biso   1.000  O
  O585     1.0000 0.55964  0.97618  0.56866  Biso   1.000  O
  O586     1.0000 0.07114  0.94157  0.22152  Biso   1.000  O
  O587     1.0000 0.93255  0.18796  0.74228  Biso   1.000  O
  O588     1.0000 0.11134  0.94157  0.22296  Biso   1.000  O
  O589     1.0000 0.93255  0.38941  0.49373  Biso   1.000  O
  O590     1.0000 0.07114  0.94157  0.66162  Biso   1.000  O
  O591     1.0000 0.73326  0.94157  0.18796  Biso   1.000  O
  O592     1.0000 0.96232  0.64223  0.61569  Biso   1.000  O
  O593     1.0000 0.90278  0.61569  0.24091  Biso   1.000  O
  O594     1.0000 0.93255  0.82349  0.18538  Biso   1.000  O
  O595     1.0000 0.17894  0.94157  0.14086  Biso   1.000  O
  O596     1.0000 0.38039  0.94157  0.38941  Biso   1.000  O
  O597     1.0000 0.60667  0.97134  0.64223  Biso   1.000  O
  O598     1.0000 0.13184  0.94157  0.69518  Biso   1.000  O
  O599     1.0000 0.75301  0.94157  0.73204  Biso   1.000  O
  O600     1.0000 0.17894  0.74228  0.94157  Biso   1.000  O
  O601     1.0000 0.93255  0.86718  0.18536  Biso   1.000  O
  O602     1.0000 0.63623  0.21222  0.91195  Biso   1.000  O
  O603     1.0000 0.66190  0.23789  0.97119  Biso   1.000  O
  O604     1.0000 0.79396  0.66162  0.94157  Biso   1.000  O
  O605     1.0000 0.29091  0.94157  0.29993  Biso   1.000  O
  O606     1.0000 0.93255  0.18538  0.82349  Biso   1.000  O
  O607     1.0000 0.93255  0.70209  0.70209  Biso   1.000  O
  O608     1.0000 0.17203  0.70209  0.94157  Biso   1.000  O
  O609     1.0000 0.93255  0.70209  0.18105  Biso   1.000  O
  O610     1.0000 0.69307  0.94157  0.70209  Biso   1.000  O
  O611     1.0000 0.17203  0.94157  0.18105  Biso   1.000  O
  O612     1.0000 0.69307  0.70209  0.94157  Biso   1.000  O
  O613     1.0000 0.93255  0.18105  0.18105  Biso   1.000  O
  O614     1.0000 0.69307  0.94157  0.18105  Biso   1.000  O
  O615     1.0000 0.17203  0.18105  0.94157  Biso   1.000  O
  O616     1.0000 0.93255  0.18105  0.70209  Biso   1.000  O
  O617     1.0000 0.69307  0.18105  0.94157  Biso   1.000  O
  O618     1.0000 0.17203  0.94157  0.70209  Biso   1.000  O
  O619     1.0000 0.65590  0.94157  0.99891  Biso   1.000  O
  O620     1.0000 0.14324  0.88417  0.94157  Biso   1.000  O
  O621     1.0000 0.47320  0.48222  0.90802  Biso   1.000  O
  O622     1.0000 0.98995  0.94157  0.73088  Biso   1.000  O
  O623     1.0000 0.39190  0.48222  0.97512  Biso   1.000  O
  O624     1.0000 0.47320  0.48222  0.97512  Biso   1.000  O
  O625     1.0000 0.39190  0.40092  0.97512  Biso   1.000  O
  O626     1.0000 0.96610  0.40092  0.48222  Biso   1.000  O
  O627     1.0000 0.20920  0.94157  0.88423  Biso   1.000  O
  O628     1.0000 0.72186  0.94157  0.88417  Biso   1.000  O
  O629     1.0000 0.47320  0.97512  0.48222  Biso   1.000  O
  O630     1.0000 0.47320  0.97512  0.40092  Biso   1.000  O
  O631     1.0000 0.93255  0.66492  0.88423  Biso   1.000  O
  O632     1.0000 0.39190  0.48222  0.90802  Biso   1.000  O
  O633     1.0000 0.89900  0.48222  0.40092  Biso   1.000  O
  O634     1.0000 0.93255  0.88417  0.73088  Biso   1.000  O
  O635     1.0000 0.39190  0.97512  0.48222  Biso   1.000  O
  O636     1.0000 0.93255  0.99891  0.21822  Biso   1.000  O
  O637     1.0000 0.98995  0.94157  0.15226  Biso   1.000  O
  O638     1.0000 0.93255  0.88423  0.66492  Biso   1.000  O
  O639     1.0000 0.87521  0.66492  0.94157  Biso   1.000  O
  O640     1.0000 0.93255  0.88423  0.21822  Biso   1.000  O
  O641     1.0000 0.72186  0.99897  0.94157  Biso   1.000  O
  O642     1.0000 0.20920  0.94157  0.99891  Biso   1.000  O
  O643     1.0000 0.14324  0.94157  0.88417  Biso   1.000  O
  O644     1.0000 0.96610  0.48222  0.40092  Biso   1.000  O
  O645     1.0000 0.93255  0.88417  0.15226  Biso   1.000  O
  O646     1.0000 0.87515  0.15226  0.94157  Biso   1.000  O
  O647     1.0000 0.93255  0.21822  0.99891  Biso   1.000  O
  O648     1.0000 0.89900  0.40092  0.48222  Biso   1.000  O
  O649     1.0000 0.72186  0.94157  0.99897  Biso   1.000  O
  O650     1.0000 0.39190  0.90802  0.48222  Biso   1.000  O
  O651     1.0000 0.87515  0.94157  0.15226  Biso   1.000  O
  O652     1.0000 0.65590  0.94157  0.88423  Biso   1.000  O
  O653     1.0000 0.96610  0.48222  0.48222  Biso   1.000  O
  O654     1.0000 0.93255  0.99891  0.66492  Biso   1.000  O
  O655     1.0000 0.47320  0.90802  0.40092  Biso   1.000  O
  O656     1.0000 0.98989  0.21822  0.94157  Biso   1.000  O
  O657     1.0000 0.87515  0.94157  0.73088  Biso   1.000  O
  O658     1.0000 0.39190  0.97512  0.40092  Biso   1.000  O
  O659     1.0000 0.47320  0.40092  0.90802  Biso   1.000  O
  O660     1.0000 0.65590  0.88423  0.94157  Biso   1.000  O
  O661     1.0000 0.98995  0.73088  0.94157  Biso   1.000  O
  O662     1.0000 0.47320  0.40092  0.97512  Biso   1.000  O
  O663     1.0000 0.93255  0.21822  0.88423  Biso   1.000  O
  O664     1.0000 0.14324  0.99897  0.94157  Biso   1.000  O
  O665     1.0000 0.65590  0.99891  0.94157  Biso   1.000  O
  O666     1.0000 0.93255  0.15226  0.99897  Biso   1.000  O
  O667     1.0000 0.39190  0.90802  0.40092  Biso   1.000  O
  O668     1.0000 0.87515  0.73088  0.94157  Biso   1.000  O
  O669     1.0000 0.87521  0.94157  0.21822  Biso   1.000  O
  O670     1.0000 0.98995  0.15226  0.94157  Biso   1.000  O
  O671     1.0000 0.93255  0.99897  0.15226  Biso   1.000  O
  O672     1.0000 0.87521  0.94157  0.66492  Biso   1.000  O
  O673     1.0000 0.89900  0.48222  0.48222  Biso   1.000  O
  O674     1.0000 0.87521  0.21822  0.94157  Biso   1.000  O
  O675     1.0000 0.93255  0.15226  0.88417  Biso   1.000  O
  O676     1.0000 0.96610  0.40092  0.40092  Biso   1.000  O
  O677     1.0000 0.72186  0.88417  0.94157  Biso   1.000  O
  O678     1.0000 0.93255  0.66492  0.99891  Biso   1.000  O
  O679     1.0000 0.93255  0.99897  0.73088  Biso   1.000  O
  O680     1.0000 0.14324  0.94157  0.99897  Biso   1.000  O
  O681     1.0000 0.39190  0.40092  0.90802  Biso   1.000  O
  O682     1.0000 0.47320  0.90802  0.48222  Biso   1.000  O
  O683     1.0000 0.93255  0.73088  0.99897  Biso   1.000  O
  O684     1.0000 0.20920  0.99891  0.94157  Biso   1.000  O
  O685     1.0000 0.93255  0.73088  0.88417  Biso   1.000  O
  O686     1.0000 0.89900  0.40092  0.40092  Biso   1.000  O
  O687     1.0000 0.98989  0.94157  0.66492  Biso   1.000  O
  O688     1.0000 0.98989  0.66492  0.94157  Biso   1.000  O
  O689     1.0000 0.20920  0.88423  0.94157  Biso   1.000  O
