data_image0
_cell_length_a       32.9766
_cell_length_b       32.9766
_cell_length_c       32.9766
_cell_angle_alpha    60
_cell_angle_beta     60
_cell_angle_gamma    60

_symmetry_space_group_name_H-M    "P 1"
_symmetry_int_tables_number       1

loop_
  _symmetry_equiv_pos_as_xyz
  'x, y, z'

loop_
  _atom_site_label
  _atom_site_occupancy
  _atom_site_fract_x
  _atom_site_fract_y
  _atom_site_fract_z
  _atom_site_thermal_displace_type
  _atom_site_B_iso_or_equiv
  _atom_site_type_symbol
  C1       1.0000 0.95973  0.50000  0.04027  Biso   1.000  C
  C2       1.0000 0.50000  0.95973  0.50000  Biso   1.000  C
  C3       1.0000 0.04027  0.50000  0.95973  Biso   1.000  C
  C4       1.0000 0.50000  0.04027  0.50000  Biso   1.000  C
  C5       1.0000 0.95973  0.04027  0.50000  Biso   1.000  C
  C6       1.0000 0.50000  0.50000  0.04027  Biso   1.000  C
  C7       1.0000 0.04027  0.95973  0.50000  Biso   1.000  C
  C8       1.0000 0.50000  0.50000  0.95973  Biso   1.000  C
  C9       1.0000 0.95973  0.50000  0.50000  Biso   1.000  C
  C10      1.0000 0.50000  0.04027  0.95973  Biso   1.000  C
  C11      1.0000 0.04027  0.50000  0.50000  Biso   1.000  C
  C12      1.0000 0.50000  0.95973  0.04027  Biso   1.000  C
  C13      1.0000 0.12670  0.52390  0.00390  Biso   1.000  C
  C14      1.0000 0.16570  0.52770  0.04390  Biso   1.000  C
  C15      1.0000 0.52390  0.12670  0.34550  Biso   1.000  C
  C16      1.0000 0.52770  0.16570  0.26270  Biso   1.000  C
  C17      1.0000 0.00390  0.34550  0.12670  Biso   1.000  C
  C18      1.0000 0.04390  0.26270  0.16570  Biso   1.000  C
  C19      1.0000 0.34550  0.00390  0.52390  Biso   1.000  C
  C20      1.0000 0.26270  0.04390  0.52770  Biso   1.000  C
  C21      1.0000 0.12670  0.00390  0.34550  Biso   1.000  C
  C22      1.0000 0.16570  0.04390  0.26270  Biso   1.000  C
  C23      1.0000 0.52390  0.34550  0.00390  Biso   1.000  C
  C24      1.0000 0.52770  0.26270  0.04390  Biso   1.000  C
  C25      1.0000 0.00390  0.12670  0.52390  Biso   1.000  C
  C26      1.0000 0.04390  0.16570  0.52770  Biso   1.000  C
  C27      1.0000 0.34550  0.52390  0.12670  Biso   1.000  C
  C28      1.0000 0.26270  0.52770  0.16570  Biso   1.000  C
  C29      1.0000 0.12670  0.34550  0.52390  Biso   1.000  C
  C30      1.0000 0.16570  0.26270  0.52770  Biso   1.000  C
  C31      1.0000 0.52390  0.00390  0.12670  Biso   1.000  C
  C32      1.0000 0.52770  0.04390  0.16570  Biso   1.000  C
  C33      1.0000 0.00390  0.52390  0.34550  Biso   1.000  C
  C34      1.0000 0.04390  0.52770  0.26270  Biso   1.000  C
  C35      1.0000 0.34550  0.12670  0.00390  Biso   1.000  C
  C36      1.0000 0.26270  0.16570  0.04390  Biso   1.000  C
  C37      1.0000 0.47610  0.87330  0.99610  Biso   1.000  C
  C38      1.0000 0.47230  0.83430  0.95610  Biso   1.000  C
  C39      1.0000 0.87330  0.47610  0.65450  Biso   1.000  C
  C40      1.0000 0.83430  0.47230  0.73730  Biso   1.000  C
  C41      1.0000 0.65450  0.99610  0.87330  Biso   1.000  C
  C42      1.0000 0.73730  0.95610  0.83430  Biso   1.000  C
  C43      1.0000 0.99610  0.65450  0.47610  Biso   1.000  C
  C44      1.0000 0.95610  0.73730  0.47230  Biso   1.000  C
  C45      1.0000 0.99610  0.87330  0.65450  Biso   1.000  C
  C46      1.0000 0.95610  0.83430  0.73730  Biso   1.000  C
  C47      1.0000 0.65450  0.47610  0.99610  Biso   1.000  C
  C48      1.0000 0.73730  0.47230  0.95610  Biso   1.000  C
  C49      1.0000 0.87330  0.99610  0.47610  Biso   1.000  C
  C50      1.0000 0.83430  0.95610  0.47230  Biso   1.000  C
  C51      1.0000 0.47610  0.65450  0.87330  Biso   1.000  C
  C52      1.0000 0.47230  0.73730  0.83430  Biso   1.000  C
  C53      1.0000 0.65450  0.87330  0.47610  Biso   1.000  C
  C54      1.0000 0.73730  0.83430  0.47230  Biso   1.000  C
  C55      1.0000 0.99610  0.47610  0.87330  Biso   1.000  C
  C56      1.0000 0.95610  0.47230  0.83430  Biso   1.000  C
  C57      1.0000 0.47610  0.99610  0.65450  Biso   1.000  C
  C58      1.0000 0.47230  0.95610  0.73730  Biso   1.000  C
  C59      1.0000 0.87330  0.65450  0.99610  Biso   1.000  C
  C60      1.0000 0.83430  0.73730  0.95610  Biso   1.000  C
  C61      1.0000 0.87330  0.47610  0.99610  Biso   1.000  C
  C62      1.0000 0.83430  0.47230  0.95610  Biso   1.000  C
  C63      1.0000 0.47610  0.87330  0.65450  Biso   1.000  C
  C64      1.0000 0.47230  0.83430  0.73730  Biso   1.000  C
  C65      1.0000 0.99610  0.65450  0.87330  Biso   1.000  C
  C66      1.0000 0.95610  0.73730  0.83430  Biso   1.000  C
  C67      1.0000 0.65450  0.99610  0.47610  Biso   1.000  C
  C68      1.0000 0.73730  0.95610  0.47230  Biso   1.000  C
  C69      1.0000 0.87330  0.99610  0.65450  Biso   1.000  C
  C70      1.0000 0.83430  0.95610  0.73730  Biso   1.000  C
  C71      1.0000 0.47610  0.65450  0.99610  Biso   1.000  C
  C72      1.0000 0.47230  0.73730  0.95610  Biso   1.000  C
  C73      1.0000 0.99610  0.87330  0.47610  Biso   1.000  C
  C74      1.0000 0.95610  0.83430  0.47230  Biso   1.000  C
  C75      1.0000 0.65450  0.47610  0.87330  Biso   1.000  C
  C76      1.0000 0.73730  0.47230  0.83430  Biso   1.000  C
  C77      1.0000 0.87330  0.65450  0.47610  Biso   1.000  C
  C78      1.0000 0.83430  0.73730  0.47230  Biso   1.000  C
  C79      1.0000 0.47610  0.99610  0.87330  Biso   1.000  C
  C80      1.0000 0.47230  0.95610  0.83430  Biso   1.000  C
  C81      1.0000 0.99610  0.47610  0.65450  Biso   1.000  C
  C82      1.0000 0.95610  0.47230  0.73730  Biso   1.000  C
  C83      1.0000 0.65450  0.87330  0.99610  Biso   1.000  C
  C84      1.0000 0.73730  0.83430  0.95610  Biso   1.000  C
  C85      1.0000 0.52390  0.12670  0.00390  Biso   1.000  C
  C86      1.0000 0.52770  0.16570  0.04390  Biso   1.000  C
  C87      1.0000 0.12670  0.52390  0.34550  Biso   1.000  C
  C88      1.0000 0.16570  0.52770  0.26270  Biso   1.000  C
  C89      1.0000 0.34550  0.00390  0.12670  Biso   1.000  C
  C90      1.0000 0.26270  0.04390  0.16570  Biso   1.000  C
  C91      1.0000 0.00390  0.34550  0.52390  Biso   1.000  C
  C92      1.0000 0.04390  0.26270  0.52770  Biso   1.000  C
  C93      1.0000 0.00390  0.12670  0.34550  Biso   1.000  C
  C94      1.0000 0.04390  0.16570  0.26270  Biso   1.000  C
  C95      1.0000 0.34550  0.52390  0.00390  Biso   1.000  C
  C96      1.0000 0.26270  0.52770  0.04390  Biso   1.000  C
  C97      1.0000 0.12670  0.00390  0.52390  Biso   1.000  C
  C98      1.0000 0.16570  0.04390  0.52770  Biso   1.000  C
  C99      1.0000 0.52390  0.34550  0.12670  Biso   1.000  C
  C100     1.0000 0.52770  0.26270  0.16570  Biso   1.000  C
  C101     1.0000 0.34550  0.12670  0.52390  Biso   1.000  C
  C102     1.0000 0.26270  0.16570  0.52770  Biso   1.000  C
  C103     1.0000 0.00390  0.52390  0.12670  Biso   1.000  C
  C104     1.0000 0.04390  0.52770  0.16570  Biso   1.000  C
  C105     1.0000 0.52390  0.00390  0.34550  Biso   1.000  C
  C106     1.0000 0.52770  0.04390  0.26270  Biso   1.000  C
  C107     1.0000 0.12670  0.34550  0.00390  Biso   1.000  C
  C108     1.0000 0.16570  0.26270  0.04390  Biso   1.000  C
  C109     1.0000 0.11021  0.52363  0.03693  Biso   1.000  C
  C110     1.0000 0.13315  0.52671  0.06057  Biso   1.000  C
  C111     1.0000 0.52363  0.11021  0.32923  Biso   1.000  C
  C112     1.0000 0.52671  0.13315  0.27957  Biso   1.000  C
  C113     1.0000 0.03693  0.32923  0.11021  Biso   1.000  C
  C114     1.0000 0.06057  0.27957  0.13315  Biso   1.000  C
  C115     1.0000 0.32923  0.03693  0.52363  Biso   1.000  C
  C116     1.0000 0.27957  0.06057  0.52671  Biso   1.000  C
  C117     1.0000 0.11021  0.03693  0.32923  Biso   1.000  C
  C118     1.0000 0.13315  0.06057  0.27957  Biso   1.000  C
  C119     1.0000 0.52363  0.32923  0.03693  Biso   1.000  C
  C120     1.0000 0.52671  0.27957  0.06057  Biso   1.000  C
  C121     1.0000 0.03693  0.11021  0.52363  Biso   1.000  C
  C122     1.0000 0.06057  0.13315  0.52671  Biso   1.000  C
  C123     1.0000 0.32923  0.52363  0.11021  Biso   1.000  C
  C124     1.0000 0.27957  0.52671  0.13315  Biso   1.000  C
  C125     1.0000 0.11021  0.32923  0.52363  Biso   1.000  C
  C126     1.0000 0.13315  0.27957  0.52671  Biso   1.000  C
  C127     1.0000 0.52363  0.03693  0.11021  Biso   1.000  C
  C128     1.0000 0.52671  0.06057  0.13315  Biso   1.000  C
  C129     1.0000 0.03693  0.52363  0.32923  Biso   1.000  C
  C130     1.0000 0.06057  0.52671  0.27957  Biso   1.000  C
  C131     1.0000 0.32923  0.11021  0.03693  Biso   1.000  C
  C132     1.0000 0.27957  0.13315  0.06057  Biso   1.000  C
  C133     1.0000 0.47637  0.88979  0.96307  Biso   1.000  C
  C134     1.0000 0.47329  0.86685  0.93943  Biso   1.000  C
  C135     1.0000 0.88979  0.47637  0.67077  Biso   1.000  C
  C136     1.0000 0.86685  0.47329  0.72043  Biso   1.000  C
  C137     1.0000 0.67077  0.96307  0.88979  Biso   1.000  C
  C138     1.0000 0.72043  0.93943  0.86685  Biso   1.000  C
  C139     1.0000 0.96307  0.67077  0.47637  Biso   1.000  C
  C140     1.0000 0.93943  0.72043  0.47329  Biso   1.000  C
  C141     1.0000 0.96307  0.88979  0.67077  Biso   1.000  C
  C142     1.0000 0.93943  0.86685  0.72043  Biso   1.000  C
  C143     1.0000 0.67077  0.47637  0.96307  Biso   1.000  C
  C144     1.0000 0.72043  0.47329  0.93943  Biso   1.000  C
  C145     1.0000 0.88979  0.96307  0.47637  Biso   1.000  C
  C146     1.0000 0.86685  0.93943  0.47329  Biso   1.000  C
  C147     1.0000 0.47637  0.67077  0.88979  Biso   1.000  C
  C148     1.0000 0.47329  0.72043  0.86685  Biso   1.000  C
  C149     1.0000 0.67077  0.88979  0.47637  Biso   1.000  C
  C150     1.0000 0.72043  0.86685  0.47329  Biso   1.000  C
  C151     1.0000 0.96307  0.47637  0.88979  Biso   1.000  C
  C152     1.0000 0.93943  0.47329  0.86685  Biso   1.000  C
  C153     1.0000 0.47637  0.96307  0.67077  Biso   1.000  C
  C154     1.0000 0.47329  0.93943  0.72043  Biso   1.000  C
  C155     1.0000 0.88979  0.67077  0.96307  Biso   1.000  C
  C156     1.0000 0.86685  0.72043  0.93943  Biso   1.000  C
  C157     1.0000 0.88979  0.47637  0.96307  Biso   1.000  C
  C158     1.0000 0.86685  0.47329  0.93943  Biso   1.000  C
  C159     1.0000 0.47637  0.88979  0.67077  Biso   1.000  C
  C160     1.0000 0.47329  0.86685  0.72043  Biso   1.000  C
  C161     1.0000 0.96307  0.67077  0.88979  Biso   1.000  C
  C162     1.0000 0.93943  0.72043  0.86685  Biso   1.000  C
  C163     1.0000 0.67077  0.96307  0.47637  Biso   1.000  C
  C164     1.0000 0.72043  0.93943  0.47329  Biso   1.000  C
  C165     1.0000 0.88979  0.96307  0.67077  Biso   1.000  C
  C166     1.0000 0.86685  0.93943  0.72043  Biso   1.000  C
  C167     1.0000 0.47637  0.67077  0.96307  Biso   1.000  C
  C168     1.0000 0.47329  0.72043  0.93943  Biso   1.000  C
  C169     1.0000 0.96307  0.88979  0.47637  Biso   1.000  C
  C170     1.0000 0.93943  0.86685  0.47329  Biso   1.000  C
  C171     1.0000 0.67077  0.47637  0.88979  Biso   1.000  C
  C172     1.0000 0.72043  0.47329  0.86685  Biso   1.000  C
  C173     1.0000 0.88979  0.67077  0.47637  Biso   1.000  C
  C174     1.0000 0.86685  0.72043  0.47329  Biso   1.000  C
  C175     1.0000 0.47637  0.96307  0.88979  Biso   1.000  C
  C176     1.0000 0.47329  0.93943  0.86685  Biso   1.000  C
  C177     1.0000 0.96307  0.47637  0.67077  Biso   1.000  C
  C178     1.0000 0.93943  0.47329  0.72043  Biso   1.000  C
  C179     1.0000 0.67077  0.88979  0.96307  Biso   1.000  C
  C180     1.0000 0.72043  0.86685  0.93943  Biso   1.000  C
  C181     1.0000 0.52363  0.11021  0.03693  Biso   1.000  C
  C182     1.0000 0.52671  0.13315  0.06057  Biso   1.000  C
  C183     1.0000 0.11021  0.52363  0.32923  Biso   1.000  C
  C184     1.0000 0.13315  0.52671  0.27957  Biso   1.000  C
  C185     1.0000 0.32923  0.03693  0.11021  Biso   1.000  C
  C186     1.0000 0.27957  0.06057  0.13315  Biso   1.000  C
  C187     1.0000 0.03693  0.32923  0.52363  Biso   1.000  C
  C188     1.0000 0.06057  0.27957  0.52671  Biso   1.000  C
  C189     1.0000 0.03693  0.11021  0.32923  Biso   1.000  C
  C190     1.0000 0.06057  0.13315  0.27957  Biso   1.000  C
  C191     1.0000 0.32923  0.52363  0.03693  Biso   1.000  C
  C192     1.0000 0.27957  0.52671  0.06057  Biso   1.000  C
  C193     1.0000 0.11021  0.03693  0.52363  Biso   1.000  C
  C194     1.0000 0.13315  0.06057  0.52671  Biso   1.000  C
  C195     1.0000 0.52363  0.32923  0.11021  Biso   1.000  C
  C196     1.0000 0.52671  0.27957  0.13315  Biso   1.000  C
  C197     1.0000 0.32923  0.11021  0.52363  Biso   1.000  C
  C198     1.0000 0.27957  0.13315  0.52671  Biso   1.000  C
  C199     1.0000 0.03693  0.52363  0.11021  Biso   1.000  C
  C200     1.0000 0.06057  0.52671  0.13315  Biso   1.000  C
  C201     1.0000 0.52363  0.03693  0.32923  Biso   1.000  C
  C202     1.0000 0.52671  0.06057  0.27957  Biso   1.000  C
  C203     1.0000 0.11021  0.32923  0.03693  Biso   1.000  C
  C204     1.0000 0.13315  0.27957  0.06057  Biso   1.000  C
  C205     1.0000 0.03820  0.51314  0.03820  Biso   1.000  C
  C206     1.0000 0.06255  0.51997  0.06255  Biso   1.000  C
  C207     1.0000 0.10834  0.52846  0.10834  Biso   1.000  C
  C208     1.0000 0.13362  0.53180  0.13362  Biso   1.000  C
  C209     1.0000 0.51314  0.03820  0.41046  Biso   1.000  C
  C210     1.0000 0.51997  0.06255  0.35493  Biso   1.000  C
  C211     1.0000 0.52846  0.10834  0.25486  Biso   1.000  C
  C212     1.0000 0.53180  0.13362  0.20096  Biso   1.000  C
  C213     1.0000 0.03820  0.41046  0.03820  Biso   1.000  C
  C214     1.0000 0.06255  0.35493  0.06255  Biso   1.000  C
  C215     1.0000 0.10834  0.25486  0.10834  Biso   1.000  C
  C216     1.0000 0.13362  0.20096  0.13362  Biso   1.000  C
  C217     1.0000 0.41046  0.03820  0.51314  Biso   1.000  C
  C218     1.0000 0.35493  0.06255  0.51997  Biso   1.000  C
  C219     1.0000 0.25486  0.10834  0.52846  Biso   1.000  C
  C220     1.0000 0.20096  0.13362  0.53180  Biso   1.000  C
  C221     1.0000 0.03820  0.03820  0.41046  Biso   1.000  C
  C222     1.0000 0.06255  0.06255  0.35493  Biso   1.000  C
  C223     1.0000 0.10834  0.10834  0.25486  Biso   1.000  C
  C224     1.0000 0.13362  0.13362  0.20096  Biso   1.000  C
  C225     1.0000 0.51314  0.41046  0.03820  Biso   1.000  C
  C226     1.0000 0.51997  0.35493  0.06255  Biso   1.000  C
  C227     1.0000 0.52846  0.25486  0.10834  Biso   1.000  C
  C228     1.0000 0.53180  0.20096  0.13362  Biso   1.000  C
  C229     1.0000 0.03820  0.03820  0.51314  Biso   1.000  C
  C230     1.0000 0.06255  0.06255  0.51997  Biso   1.000  C
  C231     1.0000 0.10834  0.10834  0.52846  Biso   1.000  C
  C232     1.0000 0.13362  0.13362  0.53180  Biso   1.000  C
  C233     1.0000 0.41046  0.51314  0.03820  Biso   1.000  C
  C234     1.0000 0.35493  0.51997  0.06255  Biso   1.000  C
  C235     1.0000 0.25486  0.52846  0.10834  Biso   1.000  C
  C236     1.0000 0.20096  0.53180  0.13362  Biso   1.000  C
  C237     1.0000 0.03820  0.41046  0.51314  Biso   1.000  C
  C238     1.0000 0.06255  0.35493  0.51997  Biso   1.000  C
  C239     1.0000 0.10834  0.25486  0.52846  Biso   1.000  C
  C240     1.0000 0.13362  0.20096  0.53180  Biso   1.000  C
  C241     1.0000 0.51314  0.03820  0.03820  Biso   1.000  C
  C242     1.0000 0.51997  0.06255  0.06255  Biso   1.000  C
  C243     1.0000 0.52846  0.10834  0.10834  Biso   1.000  C
  C244     1.0000 0.53180  0.13362  0.13362  Biso   1.000  C
  C245     1.0000 0.03820  0.51314  0.41046  Biso   1.000  C
  C246     1.0000 0.06255  0.51997  0.35493  Biso   1.000  C
  C247     1.0000 0.10834  0.52846  0.25486  Biso   1.000  C
  C248     1.0000 0.13362  0.53180  0.20096  Biso   1.000  C
  C249     1.0000 0.41046  0.03820  0.03820  Biso   1.000  C
  C250     1.0000 0.35493  0.06255  0.06255  Biso   1.000  C
  C251     1.0000 0.25486  0.10834  0.10834  Biso   1.000  C
  C252     1.0000 0.20096  0.13362  0.13362  Biso   1.000  C
  C253     1.0000 0.48686  0.96180  0.96180  Biso   1.000  C
  C254     1.0000 0.48003  0.93745  0.93745  Biso   1.000  C
  C255     1.0000 0.47154  0.89166  0.89166  Biso   1.000  C
  C256     1.0000 0.46820  0.86638  0.86638  Biso   1.000  C
  C257     1.0000 0.96180  0.48686  0.58954  Biso   1.000  C
  C258     1.0000 0.93745  0.48003  0.64507  Biso   1.000  C
  C259     1.0000 0.89166  0.47154  0.74514  Biso   1.000  C
  C260     1.0000 0.86638  0.46820  0.79904  Biso   1.000  C
  C261     1.0000 0.58954  0.96180  0.96180  Biso   1.000  C
  C262     1.0000 0.64507  0.93745  0.93745  Biso   1.000  C
  C263     1.0000 0.74514  0.89166  0.89166  Biso   1.000  C
  C264     1.0000 0.79904  0.86638  0.86638  Biso   1.000  C
  C265     1.0000 0.96180  0.58954  0.48686  Biso   1.000  C
  C266     1.0000 0.93745  0.64507  0.48003  Biso   1.000  C
  C267     1.0000 0.89166  0.74514  0.47154  Biso   1.000  C
  C268     1.0000 0.86638  0.79904  0.46820  Biso   1.000  C
  C269     1.0000 0.96180  0.96180  0.58954  Biso   1.000  C
  C270     1.0000 0.93745  0.93745  0.64507  Biso   1.000  C
  C271     1.0000 0.89166  0.89166  0.74514  Biso   1.000  C
  C272     1.0000 0.86638  0.86638  0.79904  Biso   1.000  C
  C273     1.0000 0.58954  0.48686  0.96180  Biso   1.000  C
  C274     1.0000 0.64507  0.48003  0.93745  Biso   1.000  C
  C275     1.0000 0.74514  0.47154  0.89166  Biso   1.000  C
  C276     1.0000 0.79904  0.46820  0.86638  Biso   1.000  C
  C277     1.0000 0.96180  0.96180  0.48686  Biso   1.000  C
  C278     1.0000 0.93745  0.93745  0.48003  Biso   1.000  C
  C279     1.0000 0.89166  0.89166  0.47154  Biso   1.000  C
  C280     1.0000 0.86638  0.86638  0.46820  Biso   1.000  C
  C281     1.0000 0.48686  0.58954  0.96180  Biso   1.000  C
  C282     1.0000 0.48003  0.64507  0.93745  Biso   1.000  C
  C283     1.0000 0.47154  0.74514  0.89166  Biso   1.000  C
  C284     1.0000 0.46820  0.79904  0.86638  Biso   1.000  C
  C285     1.0000 0.58954  0.96180  0.48686  Biso   1.000  C
  C286     1.0000 0.64507  0.93745  0.48003  Biso   1.000  C
  C287     1.0000 0.74514  0.89166  0.47154  Biso   1.000  C
  C288     1.0000 0.79904  0.86638  0.46820  Biso   1.000  C
  C289     1.0000 0.96180  0.48686  0.96180  Biso   1.000  C
  C290     1.0000 0.93745  0.48003  0.93745  Biso   1.000  C
  C291     1.0000 0.89166  0.47154  0.89166  Biso   1.000  C
  C292     1.0000 0.86638  0.46820  0.86638  Biso   1.000  C
  C293     1.0000 0.48686  0.96180  0.58954  Biso   1.000  C
  C294     1.0000 0.48003  0.93745  0.64507  Biso   1.000  C
  C295     1.0000 0.47154  0.89166  0.74514  Biso   1.000  C
  C296     1.0000 0.46820  0.86638  0.79904  Biso   1.000  C
  C297     1.0000 0.96180  0.58954  0.96180  Biso   1.000  C
  C298     1.0000 0.93745  0.64507  0.93745  Biso   1.000  C
  C299     1.0000 0.89166  0.74514  0.89166  Biso   1.000  C
  C300     1.0000 0.86638  0.79904  0.86638  Biso   1.000  C
  C301     1.0000 0.18000  0.53144  0.10856  Biso   1.000  C
  C302     1.0000 0.53144  0.18000  0.18000  Biso   1.000  C
  C303     1.0000 0.10856  0.18000  0.18000  Biso   1.000  C
  C304     1.0000 0.18000  0.10856  0.53144  Biso   1.000  C
  C305     1.0000 0.18000  0.10856  0.18000  Biso   1.000  C
  C306     1.0000 0.53144  0.18000  0.10856  Biso   1.000  C
  C307     1.0000 0.10856  0.18000  0.53144  Biso   1.000  C
  C308     1.0000 0.18000  0.53144  0.18000  Biso   1.000  C
  C309     1.0000 0.18000  0.18000  0.53144  Biso   1.000  C
  C310     1.0000 0.53144  0.10856  0.18000  Biso   1.000  C
  C311     1.0000 0.10856  0.53144  0.18000  Biso   1.000  C
  C312     1.0000 0.18000  0.18000  0.10856  Biso   1.000  C
  C313     1.0000 0.46856  0.82000  0.89144  Biso   1.000  C
  C314     1.0000 0.82000  0.46856  0.82000  Biso   1.000  C
  C315     1.0000 0.82000  0.89144  0.82000  Biso   1.000  C
  C316     1.0000 0.89144  0.82000  0.46856  Biso   1.000  C
  C317     1.0000 0.89144  0.82000  0.82000  Biso   1.000  C
  C318     1.0000 0.82000  0.46856  0.89144  Biso   1.000  C
  C319     1.0000 0.82000  0.89144  0.46856  Biso   1.000  C
  C320     1.0000 0.46856  0.82000  0.82000  Biso   1.000  C
  C321     1.0000 0.82000  0.82000  0.46856  Biso   1.000  C
  C322     1.0000 0.89144  0.46856  0.82000  Biso   1.000  C
  C323     1.0000 0.46856  0.89144  0.82000  Biso   1.000  C
  C324     1.0000 0.82000  0.82000  0.89144  Biso   1.000  C
  C325     1.0000 0.99556  0.51294  0.06358  Biso   1.000  C
  C326     1.0000 0.51294  0.99556  0.42792  Biso   1.000  C
  C327     1.0000 0.06358  0.42792  0.99556  Biso   1.000  C
  C328     1.0000 0.42792  0.06358  0.51294  Biso   1.000  C
  C329     1.0000 0.99556  0.06358  0.42792  Biso   1.000  C
  C330     1.0000 0.51294  0.42792  0.06358  Biso   1.000  C
  C331     1.0000 0.06358  0.99556  0.51294  Biso   1.000  C
  C332     1.0000 0.42792  0.51294  0.99556  Biso   1.000  C
  C333     1.0000 0.99556  0.42792  0.51294  Biso   1.000  C
  C334     1.0000 0.51294  0.06358  0.99556  Biso   1.000  C
  C335     1.0000 0.06358  0.51294  0.42792  Biso   1.000  C
  C336     1.0000 0.42792  0.99556  0.06358  Biso   1.000  C
  C337     1.0000 0.48706  0.00444  0.93642  Biso   1.000  C
  C338     1.0000 0.00444  0.48706  0.57208  Biso   1.000  C
  C339     1.0000 0.57208  0.93642  0.00444  Biso   1.000  C
  C340     1.0000 0.93642  0.57208  0.48706  Biso   1.000  C
  C341     1.0000 0.93642  0.00444  0.57208  Biso   1.000  C
  C342     1.0000 0.57208  0.48706  0.93642  Biso   1.000  C
  C343     1.0000 0.00444  0.93642  0.48706  Biso   1.000  C
  C344     1.0000 0.48706  0.57208  0.00444  Biso   1.000  C
  C345     1.0000 0.57208  0.00444  0.48706  Biso   1.000  C
  C346     1.0000 0.93642  0.48706  0.00444  Biso   1.000  C
  C347     1.0000 0.48706  0.93642  0.57208  Biso   1.000  C
  C348     1.0000 0.00444  0.57208  0.93642  Biso   1.000  C
  C349     1.0000 0.00444  0.48706  0.93642  Biso   1.000  C
  C350     1.0000 0.48706  0.00444  0.57208  Biso   1.000  C
  C351     1.0000 0.93642  0.57208  0.00444  Biso   1.000  C
  C352     1.0000 0.57208  0.93642  0.48706  Biso   1.000  C
  C353     1.0000 0.00444  0.93642  0.57208  Biso   1.000  C
  C354     1.0000 0.48706  0.57208  0.93642  Biso   1.000  C
  C355     1.0000 0.93642  0.00444  0.48706  Biso   1.000  C
  C356     1.0000 0.57208  0.48706  0.00444  Biso   1.000  C
  C357     1.0000 0.00444  0.57208  0.48706  Biso   1.000  C
  C358     1.0000 0.48706  0.93642  0.00444  Biso   1.000  C
  C359     1.0000 0.93642  0.48706  0.57208  Biso   1.000  C
  C360     1.0000 0.57208  0.00444  0.93642  Biso   1.000  C
  C361     1.0000 0.51294  0.99556  0.06358  Biso   1.000  C
  C362     1.0000 0.99556  0.51294  0.42792  Biso   1.000  C
  C363     1.0000 0.42792  0.06358  0.99556  Biso   1.000  C
  C364     1.0000 0.06358  0.42792  0.51294  Biso   1.000  C
  C365     1.0000 0.06358  0.99556  0.42792  Biso   1.000  C
  C366     1.0000 0.42792  0.51294  0.06358  Biso   1.000  C
  C367     1.0000 0.99556  0.06358  0.51294  Biso   1.000  C
  C368     1.0000 0.51294  0.42792  0.99556  Biso   1.000  C
  C369     1.0000 0.42792  0.99556  0.51294  Biso   1.000  C
  C370     1.0000 0.06358  0.51294  0.99556  Biso   1.000  C
  C371     1.0000 0.51294  0.06358  0.42792  Biso   1.000  C
  C372     1.0000 0.99556  0.42792  0.06358  Biso   1.000  C
  O1       1.0000 0.29698  0.30452  0.55710  Biso   1.000  O
  O2       1.0000 0.75671  0.84479  0.09737  Biso   1.000  O
  O3       1.0000 0.29698  0.30452  0.63764  Biso   1.000  O
  O4       1.0000 0.83725  0.76425  0.09737  Biso   1.000  O
  O5       1.0000 0.29698  0.76425  0.09737  Biso   1.000  O
  O6       1.0000 0.83725  0.30452  0.55710  Biso   1.000  O
  O7       1.0000 0.29698  0.84479  0.09737  Biso   1.000  O
  O8       1.0000 0.75671  0.30452  0.63764  Biso   1.000  O
  O9       1.0000 0.75671  0.30452  0.09737  Biso   1.000  O
  O10      1.0000 0.29698  0.76425  0.63764  Biso   1.000  O
  O11      1.0000 0.83725  0.30452  0.09737  Biso   1.000  O
  O12      1.0000 0.29698  0.84479  0.55710  Biso   1.000  O
  O13      1.0000 0.45148  0.28062  0.59347  Biso   1.000  O
  O14      1.0000 0.53428  0.27682  0.55347  Biso   1.000  O
  O15      1.0000 0.79308  0.67782  0.25187  Biso   1.000  O
  O16      1.0000 0.75308  0.63882  0.33467  Biso   1.000  O
  O17      1.0000 0.27308  0.45902  0.47067  Biso   1.000  O
  O18      1.0000 0.26928  0.54182  0.43167  Biso   1.000  O
  O19      1.0000 0.67028  0.80062  0.07347  Biso   1.000  O
  O20      1.0000 0.63128  0.76062  0.06967  Biso   1.000  O
  O21      1.0000 0.27308  0.80062  0.25187  Biso   1.000  O
  O22      1.0000 0.26928  0.76062  0.33467  Biso   1.000  O
  O23      1.0000 0.67028  0.45902  0.59347  Biso   1.000  O
  O24      1.0000 0.63128  0.54182  0.55347  Biso   1.000  O
  O25      1.0000 0.45148  0.67782  0.07347  Biso   1.000  O
  O26      1.0000 0.53428  0.63882  0.06967  Biso   1.000  O
  O27      1.0000 0.79308  0.28062  0.47067  Biso   1.000  O
  O28      1.0000 0.75308  0.27682  0.43167  Biso   1.000  O
  O29      1.0000 0.79308  0.45902  0.07347  Biso   1.000  O
  O30      1.0000 0.75308  0.54182  0.06967  Biso   1.000  O
  O31      1.0000 0.45148  0.80062  0.47067  Biso   1.000  O
  O32      1.0000 0.53428  0.76062  0.43167  Biso   1.000  O
  O33      1.0000 0.67028  0.28062  0.25187  Biso   1.000  O
  O34      1.0000 0.63128  0.27682  0.33467  Biso   1.000  O
  O35      1.0000 0.27308  0.67782  0.59347  Biso   1.000  O
  O36      1.0000 0.26928  0.63882  0.55347  Biso   1.000  O
  O37      1.0000 0.14248  0.93122  0.60127  Biso   1.000  O
  O38      1.0000 0.05968  0.97022  0.64127  Biso   1.000  O
  O39      1.0000 0.80088  0.32842  0.94287  Biso   1.000  O
  O40      1.0000 0.84088  0.33222  0.86007  Biso   1.000  O
  O41      1.0000 0.32088  0.80842  0.72407  Biso   1.000  O
  O42      1.0000 0.32468  0.84842  0.76307  Biso   1.000  O
  O43      1.0000 0.92368  0.15002  0.12127  Biso   1.000  O
  O44      1.0000 0.96268  0.06722  0.12507  Biso   1.000  O
  O45      1.0000 0.32088  0.93122  0.94287  Biso   1.000  O
  O46      1.0000 0.32468  0.97022  0.86007  Biso   1.000  O
  O47      1.0000 0.92368  0.32842  0.60127  Biso   1.000  O
  O48      1.0000 0.96268  0.33222  0.64127  Biso   1.000  O
  O49      1.0000 0.14248  0.80842  0.12127  Biso   1.000  O
  O50      1.0000 0.05968  0.84842  0.12507  Biso   1.000  O
  O51      1.0000 0.80088  0.15002  0.72407  Biso   1.000  O
  O52      1.0000 0.84088  0.06722  0.76307  Biso   1.000  O
  O53      1.0000 0.80088  0.93122  0.12127  Biso   1.000  O
  O54      1.0000 0.84088  0.97022  0.12507  Biso   1.000  O
  O55      1.0000 0.14248  0.32842  0.72407  Biso   1.000  O
  O56      1.0000 0.05968  0.33222  0.76307  Biso   1.000  O
  O57      1.0000 0.92368  0.80842  0.94287  Biso   1.000  O
  O58      1.0000 0.96268  0.84842  0.86007  Biso   1.000  O
  O59      1.0000 0.32088  0.15002  0.60127  Biso   1.000  O
  O60      1.0000 0.32468  0.06722  0.64127  Biso   1.000  O
  O61      1.0000 0.14248  0.32842  0.60127  Biso   1.000  O
  O62      1.0000 0.05968  0.33222  0.64127  Biso   1.000  O
  O63      1.0000 0.80088  0.93122  0.94287  Biso   1.000  O
  O64      1.0000 0.84088  0.97022  0.86007  Biso   1.000  O
  O65      1.0000 0.32088  0.15002  0.72407  Biso   1.000  O
  O66      1.0000 0.32468  0.06722  0.76307  Biso   1.000  O
  O67      1.0000 0.92368  0.80842  0.12127  Biso   1.000  O
  O68      1.0000 0.96268  0.84842  0.12507  Biso   1.000  O
  O69      1.0000 0.32088  0.80842  0.94287  Biso   1.000  O
  O70      1.0000 0.32468  0.84842  0.86007  Biso   1.000  O
  O71      1.0000 0.92368  0.15002  0.60127  Biso   1.000  O
  O72      1.0000 0.96268  0.06722  0.64127  Biso   1.000  O
  O73      1.0000 0.14248  0.93122  0.12127  Biso   1.000  O
  O74      1.0000 0.05968  0.97022  0.12507  Biso   1.000  O
  O75      1.0000 0.80088  0.32842  0.72407  Biso   1.000  O
  O76      1.0000 0.84088  0.33222  0.76307  Biso   1.000  O
  O77      1.0000 0.80088  0.15002  0.12127  Biso   1.000  O
  O78      1.0000 0.84088  0.06722  0.12507  Biso   1.000  O
  O79      1.0000 0.14248  0.80842  0.72407  Biso   1.000  O
  O80      1.0000 0.05968  0.84842  0.76307  Biso   1.000  O
  O81      1.0000 0.92368  0.32842  0.94287  Biso   1.000  O
  O82      1.0000 0.96268  0.33222  0.86007  Biso   1.000  O
  O83      1.0000 0.32088  0.93122  0.60127  Biso   1.000  O
  O84      1.0000 0.32468  0.97022  0.64127  Biso   1.000  O
  O85      1.0000 0.45148  0.67782  0.59347  Biso   1.000  O
  O86      1.0000 0.53428  0.63882  0.55347  Biso   1.000  O
  O87      1.0000 0.79308  0.28062  0.25187  Biso   1.000  O
  O88      1.0000 0.75308  0.27682  0.33467  Biso   1.000  O
  O89      1.0000 0.27308  0.80062  0.47067  Biso   1.000  O
  O90      1.0000 0.26928  0.76062  0.43167  Biso   1.000  O
  O91      1.0000 0.67028  0.45902  0.07347  Biso   1.000  O
  O92      1.0000 0.63128  0.54182  0.06967  Biso   1.000  O
  O93      1.0000 0.27308  0.67782  0.25187  Biso   1.000  O
  O94      1.0000 0.26928  0.63882  0.33467  Biso   1.000  O
  O95      1.0000 0.67028  0.28062  0.59347  Biso   1.000  O
  O96      1.0000 0.63128  0.27682  0.55347  Biso   1.000  O
  O97      1.0000 0.45148  0.80062  0.07347  Biso   1.000  O
  O98      1.0000 0.53428  0.76062  0.06967  Biso   1.000  O
  O99      1.0000 0.79308  0.45902  0.47067  Biso   1.000  O
  O100     1.0000 0.75308  0.54182  0.43167  Biso   1.000  O
  O101     1.0000 0.79308  0.67782  0.07347  Biso   1.000  O
  O102     1.0000 0.75308  0.63882  0.06967  Biso   1.000  O
  O103     1.0000 0.45148  0.28062  0.47067  Biso   1.000  O
  O104     1.0000 0.53428  0.27682  0.43167  Biso   1.000  O
  O105     1.0000 0.67028  0.80062  0.25187  Biso   1.000  O
  O106     1.0000 0.63128  0.76062  0.33467  Biso   1.000  O
  O107     1.0000 0.27308  0.45902  0.59347  Biso   1.000  O
  O108     1.0000 0.26928  0.54182  0.55347  Biso   1.000  O
  O109     1.0000 0.46775  0.28089  0.56044  Biso   1.000  O
  O110     1.0000 0.51741  0.27781  0.53680  Biso   1.000  O
  O111     1.0000 0.76005  0.69431  0.26814  Biso   1.000  O
  O112     1.0000 0.73641  0.67137  0.31780  Biso   1.000  O
  O113     1.0000 0.27335  0.47529  0.48716  Biso   1.000  O
  O114     1.0000 0.27027  0.52495  0.46422  Biso   1.000  O
  O115     1.0000 0.68677  0.76759  0.07374  Biso   1.000  O
  O116     1.0000 0.66383  0.74395  0.07066  Biso   1.000  O
  O117     1.0000 0.27335  0.76759  0.26814  Biso   1.000  O
  O118     1.0000 0.27027  0.74395  0.31780  Biso   1.000  O
  O119     1.0000 0.68677  0.47529  0.56044  Biso   1.000  O
  O120     1.0000 0.66383  0.52495  0.53680  Biso   1.000  O
  O121     1.0000 0.46775  0.69431  0.07374  Biso   1.000  O
  O122     1.0000 0.51741  0.67137  0.07066  Biso   1.000  O
  O123     1.0000 0.76005  0.28089  0.48716  Biso   1.000  O
  O124     1.0000 0.73641  0.27781  0.46422  Biso   1.000  O
  O125     1.0000 0.76005  0.47529  0.07374  Biso   1.000  O
  O126     1.0000 0.73641  0.52495  0.07066  Biso   1.000  O
  O127     1.0000 0.46775  0.76759  0.48716  Biso   1.000  O
  O128     1.0000 0.51741  0.74395  0.46422  Biso   1.000  O
  O129     1.0000 0.68677  0.28089  0.26814  Biso   1.000  O
  O130     1.0000 0.66383  0.27781  0.31780  Biso   1.000  O
  O131     1.0000 0.27335  0.69431  0.56044  Biso   1.000  O
  O132     1.0000 0.27027  0.67137  0.53680  Biso   1.000  O
  O133     1.0000 0.12621  0.91473  0.63430  Biso   1.000  O
  O134     1.0000 0.07655  0.93767  0.65794  Biso   1.000  O
  O135     1.0000 0.83391  0.32815  0.92660  Biso   1.000  O
  O136     1.0000 0.85755  0.33123  0.87694  Biso   1.000  O
  O137     1.0000 0.32061  0.84145  0.70758  Biso   1.000  O
  O138     1.0000 0.32369  0.86509  0.73052  Biso   1.000  O
  O139     1.0000 0.90719  0.13375  0.12100  Biso   1.000  O
  O140     1.0000 0.93013  0.08409  0.12408  Biso   1.000  O
  O141     1.0000 0.32061  0.91473  0.92660  Biso   1.000  O
  O142     1.0000 0.32369  0.93767  0.87694  Biso   1.000  O
  O143     1.0000 0.90719  0.32815  0.63430  Biso   1.000  O
  O144     1.0000 0.93013  0.33123  0.65794  Biso   1.000  O
  O145     1.0000 0.12621  0.84145  0.12100  Biso   1.000  O
  O146     1.0000 0.07655  0.86509  0.12408  Biso   1.000  O
  O147     1.0000 0.83391  0.13375  0.70758  Biso   1.000  O
  O148     1.0000 0.85755  0.08409  0.73052  Biso   1.000  O
  O149     1.0000 0.83391  0.91473  0.12100  Biso   1.000  O
  O150     1.0000 0.85755  0.93767  0.12408  Biso   1.000  O
  O151     1.0000 0.12621  0.32815  0.70758  Biso   1.000  O
  O152     1.0000 0.07655  0.33123  0.73052  Biso   1.000  O
  O153     1.0000 0.90719  0.84145  0.92660  Biso   1.000  O
  O154     1.0000 0.93013  0.86509  0.87694  Biso   1.000  O
  O155     1.0000 0.32061  0.13375  0.63430  Biso   1.000  O
  O156     1.0000 0.32369  0.08409  0.65794  Biso   1.000  O
  O157     1.0000 0.12621  0.32815  0.63430  Biso   1.000  O
  O158     1.0000 0.07655  0.33123  0.65794  Biso   1.000  O
  O159     1.0000 0.83391  0.91473  0.92660  Biso   1.000  O
  O160     1.0000 0.85755  0.93767  0.87694  Biso   1.000  O
  O161     1.0000 0.32061  0.13375  0.70758  Biso   1.000  O
  O162     1.0000 0.32369  0.08409  0.73052  Biso   1.000  O
  O163     1.0000 0.90719  0.84145  0.12100  Biso   1.000  O
  O164     1.0000 0.93013  0.86509  0.12408  Biso   1.000  O
  O165     1.0000 0.32061  0.84145  0.92660  Biso   1.000  O
  O166     1.0000 0.32369  0.86509  0.87694  Biso   1.000  O
  O167     1.0000 0.90719  0.13375  0.63430  Biso   1.000  O
  O168     1.0000 0.93013  0.08409  0.65794  Biso   1.000  O
  O169     1.0000 0.12621  0.91473  0.12100  Biso   1.000  O
  O170     1.0000 0.07655  0.93767  0.12408  Biso   1.000  O
  O171     1.0000 0.83391  0.32815  0.70758  Biso   1.000  O
  O172     1.0000 0.85755  0.33123  0.73052  Biso   1.000  O
  O173     1.0000 0.83391  0.13375  0.12100  Biso   1.000  O
  O174     1.0000 0.85755  0.08409  0.12408  Biso   1.000  O
  O175     1.0000 0.12621  0.84145  0.70758  Biso   1.000  O
  O176     1.0000 0.07655  0.86509  0.73052  Biso   1.000  O
  O177     1.0000 0.90719  0.32815  0.92660  Biso   1.000  O
  O178     1.0000 0.93013  0.33123  0.87694  Biso   1.000  O
  O179     1.0000 0.32061  0.91473  0.63430  Biso   1.000  O
  O180     1.0000 0.32369  0.93767  0.65794  Biso   1.000  O
  O181     1.0000 0.46775  0.69431  0.56044  Biso   1.000  O
  O182     1.0000 0.51741  0.67137  0.53680  Biso   1.000  O
  O183     1.0000 0.76005  0.28089  0.26814  Biso   1.000  O
  O184     1.0000 0.73641  0.27781  0.31780  Biso   1.000  O
  O185     1.0000 0.27335  0.76759  0.48716  Biso   1.000  O
  O186     1.0000 0.27027  0.74395  0.46422  Biso   1.000  O
  O187     1.0000 0.68677  0.47529  0.07374  Biso   1.000  O
  O188     1.0000 0.66383  0.52495  0.07066  Biso   1.000  O
  O189     1.0000 0.27335  0.69431  0.26814  Biso   1.000  O
  O190     1.0000 0.27027  0.67137  0.31780  Biso   1.000  O
  O191     1.0000 0.68677  0.28089  0.56044  Biso   1.000  O
  O192     1.0000 0.66383  0.27781  0.53680  Biso   1.000  O
  O193     1.0000 0.46775  0.76759  0.07374  Biso   1.000  O
  O194     1.0000 0.51741  0.74395  0.07066  Biso   1.000  O
  O195     1.0000 0.76005  0.47529  0.48716  Biso   1.000  O
  O196     1.0000 0.73641  0.52495  0.46422  Biso   1.000  O
  O197     1.0000 0.76005  0.69431  0.07374  Biso   1.000  O
  O198     1.0000 0.73641  0.67137  0.07066  Biso   1.000  O
  O199     1.0000 0.46775  0.28089  0.48716  Biso   1.000  O
  O200     1.0000 0.51741  0.27781  0.46422  Biso   1.000  O
  O201     1.0000 0.68677  0.76759  0.26814  Biso   1.000  O
  O202     1.0000 0.66383  0.74395  0.31780  Biso   1.000  O
  O203     1.0000 0.27335  0.47529  0.56044  Biso   1.000  O
  O204     1.0000 0.27027  0.52495  0.53680  Biso   1.000  O
  O205     1.0000 0.38652  0.29138  0.55917  Biso   1.000  O
  O206     1.0000 0.44205  0.28455  0.53482  Biso   1.000  O
  O207     1.0000 0.54212  0.27606  0.48903  Biso   1.000  O
  O208     1.0000 0.59602  0.27272  0.46375  Biso   1.000  O
  O209     1.0000 0.75878  0.76632  0.18691  Biso   1.000  O
  O210     1.0000 0.73443  0.74197  0.24244  Biso   1.000  O
  O211     1.0000 0.68864  0.69618  0.34251  Biso   1.000  O
  O212     1.0000 0.66336  0.67090  0.39641  Biso   1.000  O
  O213     1.0000 0.28384  0.39406  0.55917  Biso   1.000  O
  O214     1.0000 0.27701  0.44959  0.53482  Biso   1.000  O
  O215     1.0000 0.26852  0.54966  0.48903  Biso   1.000  O
  O216     1.0000 0.26518  0.60356  0.46375  Biso   1.000  O
  O217     1.0000 0.75878  0.76632  0.08423  Biso   1.000  O
  O218     1.0000 0.73443  0.74197  0.07740  Biso   1.000  O
  O219     1.0000 0.68864  0.69618  0.06891  Biso   1.000  O
  O220     1.0000 0.66336  0.67090  0.06557  Biso   1.000  O
  O221     1.0000 0.28384  0.76632  0.18691  Biso   1.000  O
  O222     1.0000 0.27701  0.74197  0.24244  Biso   1.000  O
  O223     1.0000 0.26852  0.69618  0.34251  Biso   1.000  O
  O224     1.0000 0.26518  0.67090  0.39641  Biso   1.000  O
  O225     1.0000 0.75878  0.39406  0.55917  Biso   1.000  O
  O226     1.0000 0.73443  0.44959  0.53482  Biso   1.000  O
  O227     1.0000 0.68864  0.54966  0.48903  Biso   1.000  O
  O228     1.0000 0.66336  0.60356  0.46375  Biso   1.000  O
  O229     1.0000 0.38652  0.76632  0.08423  Biso   1.000  O
  O230     1.0000 0.44205  0.74197  0.07740  Biso   1.000  O
  O231     1.0000 0.54212  0.69618  0.06891  Biso   1.000  O
  O232     1.0000 0.59602  0.67090  0.06557  Biso   1.000  O
  O233     1.0000 0.75878  0.29138  0.55917  Biso   1.000  O
  O234     1.0000 0.73443  0.28455  0.53482  Biso   1.000  O
  O235     1.0000 0.68864  0.27606  0.48903  Biso   1.000  O
  O236     1.0000 0.66336  0.27272  0.46375  Biso   1.000  O
  O237     1.0000 0.75878  0.39406  0.08423  Biso   1.000  O
  O238     1.0000 0.73443  0.44959  0.07740  Biso   1.000  O
  O239     1.0000 0.68864  0.54966  0.06891  Biso   1.000  O
  O240     1.0000 0.66336  0.60356  0.06557  Biso   1.000  O
  O241     1.0000 0.38652  0.76632  0.55917  Biso   1.000  O
  O242     1.0000 0.44205  0.74197  0.53482  Biso   1.000  O
  O243     1.0000 0.54212  0.69618  0.48903  Biso   1.000  O
  O244     1.0000 0.59602  0.67090  0.46375  Biso   1.000  O
  O245     1.0000 0.75878  0.29138  0.18691  Biso   1.000  O
  O246     1.0000 0.73443  0.28455  0.24244  Biso   1.000  O
  O247     1.0000 0.68864  0.27606  0.34251  Biso   1.000  O
  O248     1.0000 0.66336  0.27272  0.39641  Biso   1.000  O
  O249     1.0000 0.28384  0.76632  0.55917  Biso   1.000  O
  O250     1.0000 0.27701  0.74197  0.53482  Biso   1.000  O
  O251     1.0000 0.26852  0.69618  0.48903  Biso   1.000  O
  O252     1.0000 0.26518  0.67090  0.46375  Biso   1.000  O
  O253     1.0000 0.20744  0.84272  0.63557  Biso   1.000  O
  O254     1.0000 0.15191  0.86707  0.65992  Biso   1.000  O
  O255     1.0000 0.05184  0.91286  0.70571  Biso   1.000  O
  O256     1.0000 0.99794  0.93814  0.73099  Biso   1.000  O
  O257     1.0000 0.83518  0.31766  0.00783  Biso   1.000  O
  O258     1.0000 0.85953  0.32449  0.95230  Biso   1.000  O
  O259     1.0000 0.90532  0.33298  0.85223  Biso   1.000  O
  O260     1.0000 0.93060  0.33632  0.79833  Biso   1.000  O
  O261     1.0000 0.31012  0.84272  0.63557  Biso   1.000  O
  O262     1.0000 0.31695  0.86707  0.65992  Biso   1.000  O
  O263     1.0000 0.32544  0.91286  0.70571  Biso   1.000  O
  O264     1.0000 0.32878  0.93814  0.73099  Biso   1.000  O
  O265     1.0000 0.83518  0.21498  0.11051  Biso   1.000  O
  O266     1.0000 0.85953  0.15945  0.11734  Biso   1.000  O
  O267     1.0000 0.90532  0.05938  0.12583  Biso   1.000  O
  O268     1.0000 0.93060  0.00548  0.12917  Biso   1.000  O
  O269     1.0000 0.31012  0.84272  0.00783  Biso   1.000  O
  O270     1.0000 0.31695  0.86707  0.95230  Biso   1.000  O
  O271     1.0000 0.32544  0.91286  0.85223  Biso   1.000  O
  O272     1.0000 0.32878  0.93814  0.79833  Biso   1.000  O
  O273     1.0000 0.83518  0.31766  0.63557  Biso   1.000  O
  O274     1.0000 0.85953  0.32449  0.65992  Biso   1.000  O
  O275     1.0000 0.90532  0.33298  0.70571  Biso   1.000  O
  O276     1.0000 0.93060  0.33632  0.73099  Biso   1.000  O
  O277     1.0000 0.20744  0.84272  0.11051  Biso   1.000  O
  O278     1.0000 0.15191  0.86707  0.11734  Biso   1.000  O
  O279     1.0000 0.05184  0.91286  0.12583  Biso   1.000  O
  O280     1.0000 0.99794  0.93814  0.12917  Biso   1.000  O
  O281     1.0000 0.83518  0.21498  0.63557  Biso   1.000  O
  O282     1.0000 0.85953  0.15945  0.65992  Biso   1.000  O
  O283     1.0000 0.90532  0.05938  0.70571  Biso   1.000  O
  O284     1.0000 0.93060  0.00548  0.73099  Biso   1.000  O
  O285     1.0000 0.83518  0.84272  0.11051  Biso   1.000  O
  O286     1.0000 0.85953  0.86707  0.11734  Biso   1.000  O
  O287     1.0000 0.90532  0.91286  0.12583  Biso   1.000  O
  O288     1.0000 0.93060  0.93814  0.12917  Biso   1.000  O
  O289     1.0000 0.20744  0.31766  0.63557  Biso   1.000  O
  O290     1.0000 0.15191  0.32449  0.65992  Biso   1.000  O
  O291     1.0000 0.05184  0.33298  0.70571  Biso   1.000  O
  O292     1.0000 0.99794  0.33632  0.73099  Biso   1.000  O
  O293     1.0000 0.83518  0.84272  0.00783  Biso   1.000  O
  O294     1.0000 0.85953  0.86707  0.95230  Biso   1.000  O
  O295     1.0000 0.90532  0.91286  0.85223  Biso   1.000  O
  O296     1.0000 0.93060  0.93814  0.79833  Biso   1.000  O
  O297     1.0000 0.31012  0.21498  0.63557  Biso   1.000  O
  O298     1.0000 0.31695  0.15945  0.65992  Biso   1.000  O
  O299     1.0000 0.32544  0.05938  0.70571  Biso   1.000  O
  O300     1.0000 0.32878  0.00548  0.73099  Biso   1.000  O
  O301     1.0000 0.61698  0.27308  0.48881  Biso   1.000  O
  O302     1.0000 0.68842  0.62452  0.41737  Biso   1.000  O
  O303     1.0000 0.26554  0.62452  0.41737  Biso   1.000  O
  O304     1.0000 0.61698  0.69596  0.06593  Biso   1.000  O
  O305     1.0000 0.26554  0.69596  0.41737  Biso   1.000  O
  O306     1.0000 0.61698  0.62452  0.48881  Biso   1.000  O
  O307     1.0000 0.61698  0.62452  0.06593  Biso   1.000  O
  O308     1.0000 0.68842  0.27308  0.41737  Biso   1.000  O
  O309     1.0000 0.68842  0.62452  0.06593  Biso   1.000  O
  O310     1.0000 0.61698  0.69596  0.41737  Biso   1.000  O
  O311     1.0000 0.61698  0.27308  0.41737  Biso   1.000  O
  O312     1.0000 0.26554  0.62452  0.48881  Biso   1.000  O
  O313     1.0000 0.97698  0.98452  0.70593  Biso   1.000  O
  O314     1.0000 0.90554  0.33596  0.77737  Biso   1.000  O
  O315     1.0000 0.32842  0.91308  0.77737  Biso   1.000  O
  O316     1.0000 0.97698  0.98452  0.12881  Biso   1.000  O
  O317     1.0000 0.32842  0.98452  0.77737  Biso   1.000  O
  O318     1.0000 0.97698  0.33596  0.70593  Biso   1.000  O
  O319     1.0000 0.97698  0.91308  0.12881  Biso   1.000  O
  O320     1.0000 0.90554  0.98452  0.77737  Biso   1.000  O
  O321     1.0000 0.90554  0.98452  0.12881  Biso   1.000  O
  O322     1.0000 0.97698  0.33596  0.77737  Biso   1.000  O
  O323     1.0000 0.97698  0.91308  0.77737  Biso   1.000  O
  O324     1.0000 0.32842  0.98452  0.70593  Biso   1.000  O
  O325     1.0000 0.36906  0.29158  0.53379  Biso   1.000  O
  O326     1.0000 0.73340  0.80896  0.16945  Biso   1.000  O
  O327     1.0000 0.28404  0.37660  0.60181  Biso   1.000  O
  O328     1.0000 0.80142  0.74094  0.08443  Biso   1.000  O
  O329     1.0000 0.28404  0.74094  0.16945  Biso   1.000  O
  O330     1.0000 0.80142  0.37660  0.53379  Biso   1.000  O
  O331     1.0000 0.36906  0.80896  0.08443  Biso   1.000  O
  O332     1.0000 0.73340  0.29158  0.60181  Biso   1.000  O
  O333     1.0000 0.73340  0.37660  0.08443  Biso   1.000  O
  O334     1.0000 0.36906  0.74094  0.60181  Biso   1.000  O
  O335     1.0000 0.80142  0.29158  0.16945  Biso   1.000  O
  O336     1.0000 0.28404  0.80896  0.53379  Biso   1.000  O
  O337     1.0000 0.22490  0.80008  0.66095  Biso   1.000  O
  O338     1.0000 0.86056  0.31746  0.02529  Biso   1.000  O
  O339     1.0000 0.30992  0.86810  0.59293  Biso   1.000  O
  O340     1.0000 0.79254  0.23244  0.11031  Biso   1.000  O
  O341     1.0000 0.30992  0.80008  0.02529  Biso   1.000  O
  O342     1.0000 0.79254  0.31746  0.66095  Biso   1.000  O
  O343     1.0000 0.22490  0.86810  0.11031  Biso   1.000  O
  O344     1.0000 0.86056  0.23244  0.59293  Biso   1.000  O
  O345     1.0000 0.86056  0.80008  0.11031  Biso   1.000  O
  O346     1.0000 0.22490  0.31746  0.59293  Biso   1.000  O
  O347     1.0000 0.79254  0.86810  0.02529  Biso   1.000  O
  O348     1.0000 0.30992  0.23244  0.66095  Biso   1.000  O
  O349     1.0000 0.22490  0.31746  0.66095  Biso   1.000  O
  O350     1.0000 0.86056  0.80008  0.02529  Biso   1.000  O
  O351     1.0000 0.30992  0.23244  0.59293  Biso   1.000  O
  O352     1.0000 0.79254  0.86810  0.11031  Biso   1.000  O
  O353     1.0000 0.30992  0.86810  0.02529  Biso   1.000  O
  O354     1.0000 0.79254  0.23244  0.66095  Biso   1.000  O
  O355     1.0000 0.22490  0.80008  0.11031  Biso   1.000  O
  O356     1.0000 0.86056  0.31746  0.59293  Biso   1.000  O
  O357     1.0000 0.86056  0.23244  0.11031  Biso   1.000  O
  O358     1.0000 0.22490  0.86810  0.59293  Biso   1.000  O
  O359     1.0000 0.79254  0.31746  0.02529  Biso   1.000  O
  O360     1.0000 0.30992  0.80008  0.66095  Biso   1.000  O
  O361     1.0000 0.36906  0.80896  0.53379  Biso   1.000  O
  O362     1.0000 0.73340  0.29158  0.16945  Biso   1.000  O
  O363     1.0000 0.28404  0.74094  0.60181  Biso   1.000  O
  O364     1.0000 0.80142  0.37660  0.08443  Biso   1.000  O
  O365     1.0000 0.28404  0.80896  0.16945  Biso   1.000  O
  O366     1.0000 0.80142  0.29158  0.53379  Biso   1.000  O
  O367     1.0000 0.36906  0.74094  0.08443  Biso   1.000  O
  O368     1.0000 0.73340  0.37660  0.60181  Biso   1.000  O
  O369     1.0000 0.73340  0.80896  0.08443  Biso   1.000  O
  O370     1.0000 0.36906  0.29158  0.60181  Biso   1.000  O
  O371     1.0000 0.80142  0.74094  0.16945  Biso   1.000  O
