data_image0
_cell_length_a       37.4717
_cell_length_b       37.4717
_cell_length_c       37.4717
_cell_angle_alpha    60
_cell_angle_beta     60
_cell_angle_gamma    60

_symmetry_space_group_name_H-M    "P 1"
_symmetry_int_tables_number       1

loop_
  _symmetry_equiv_pos_as_xyz
  'x, y, z'

loop_
  _atom_site_label
  _atom_site_occupancy
  _atom_site_fract_x
  _atom_site_fract_y
  _atom_site_fract_z
  _atom_site_thermal_displace_type
  _atom_site_B_iso_or_equiv
  _atom_site_type_symbol
  C1       1.0000 0.50000  0.03549  0.96451  Biso   1.000  C
  C2       1.0000 0.03549  0.50000  0.50000  Biso   1.000  C
  C3       1.0000 0.96451  0.50000  0.50000  Biso   1.000  C
  C4       1.0000 0.50000  0.96451  0.03549  Biso   1.000  C
  C5       1.0000 0.50000  0.96451  0.50000  Biso   1.000  C
  C6       1.0000 0.03549  0.50000  0.96451  Biso   1.000  C
  C7       1.0000 0.96451  0.50000  0.03549  Biso   1.000  C
  C8       1.0000 0.50000  0.03549  0.50000  Biso   1.000  C
  C9       1.0000 0.50000  0.50000  0.03549  Biso   1.000  C
  C10      1.0000 0.03549  0.96451  0.50000  Biso   1.000  C
  C11      1.0000 0.96451  0.03549  0.50000  Biso   1.000  C
  C12      1.0000 0.50000  0.50000  0.96451  Biso   1.000  C
  C13      1.0000 0.47750  0.99510  0.89070  Biso   1.000  C
  C14      1.0000 0.47230  0.96290  0.85550  Biso   1.000  C
  C15      1.0000 0.99510  0.47750  0.63670  Biso   1.000  C
  C16      1.0000 0.96290  0.47230  0.70930  Biso   1.000  C
  C17      1.0000 0.89070  0.63670  0.47750  Biso   1.000  C
  C18      1.0000 0.85550  0.70930  0.47230  Biso   1.000  C
  C19      1.0000 0.63670  0.89070  0.99510  Biso   1.000  C
  C20      1.0000 0.70930  0.85550  0.96290  Biso   1.000  C
  C21      1.0000 0.47750  0.89070  0.63670  Biso   1.000  C
  C22      1.0000 0.47230  0.85550  0.70930  Biso   1.000  C
  C23      1.0000 0.99510  0.63670  0.89070  Biso   1.000  C
  C24      1.0000 0.96290  0.70930  0.85550  Biso   1.000  C
  C25      1.0000 0.89070  0.47750  0.99510  Biso   1.000  C
  C26      1.0000 0.85550  0.47230  0.96290  Biso   1.000  C
  C27      1.0000 0.63670  0.99510  0.47750  Biso   1.000  C
  C28      1.0000 0.70930  0.96290  0.47230  Biso   1.000  C
  C29      1.0000 0.47750  0.63670  0.99510  Biso   1.000  C
  C30      1.0000 0.47230  0.70930  0.96290  Biso   1.000  C
  C31      1.0000 0.99510  0.89070  0.47750  Biso   1.000  C
  C32      1.0000 0.96290  0.85550  0.47230  Biso   1.000  C
  C33      1.0000 0.89070  0.99510  0.63670  Biso   1.000  C
  C34      1.0000 0.85550  0.96290  0.70930  Biso   1.000  C
  C35      1.0000 0.63670  0.47750  0.89070  Biso   1.000  C
  C36      1.0000 0.70930  0.47230  0.85550  Biso   1.000  C
  C37      1.0000 0.00490  0.52250  0.10930  Biso   1.000  C
  C38      1.0000 0.03710  0.52770  0.14450  Biso   1.000  C
  C39      1.0000 0.52250  0.00490  0.36330  Biso   1.000  C
  C40      1.0000 0.52770  0.03710  0.29070  Biso   1.000  C
  C41      1.0000 0.36330  0.10930  0.52250  Biso   1.000  C
  C42      1.0000 0.29070  0.14450  0.52770  Biso   1.000  C
  C43      1.0000 0.10930  0.36330  0.00490  Biso   1.000  C
  C44      1.0000 0.14450  0.29070  0.03710  Biso   1.000  C
  C45      1.0000 0.10930  0.52250  0.36330  Biso   1.000  C
  C46      1.0000 0.14450  0.52770  0.29070  Biso   1.000  C
  C47      1.0000 0.36330  0.00490  0.10930  Biso   1.000  C
  C48      1.0000 0.29070  0.03710  0.14450  Biso   1.000  C
  C49      1.0000 0.52250  0.10930  0.00490  Biso   1.000  C
  C50      1.0000 0.52770  0.14450  0.03710  Biso   1.000  C
  C51      1.0000 0.00490  0.36330  0.52250  Biso   1.000  C
  C52      1.0000 0.03710  0.29070  0.52770  Biso   1.000  C
  C53      1.0000 0.36330  0.52250  0.00490  Biso   1.000  C
  C54      1.0000 0.29070  0.52770  0.03710  Biso   1.000  C
  C55      1.0000 0.10930  0.00490  0.52250  Biso   1.000  C
  C56      1.0000 0.14450  0.03710  0.52770  Biso   1.000  C
  C57      1.0000 0.00490  0.10930  0.36330  Biso   1.000  C
  C58      1.0000 0.03710  0.14450  0.29070  Biso   1.000  C
  C59      1.0000 0.52250  0.36330  0.10930  Biso   1.000  C
  C60      1.0000 0.52770  0.29070  0.14450  Biso   1.000  C
  C61      1.0000 0.52250  0.00490  0.10930  Biso   1.000  C
  C62      1.0000 0.52770  0.03710  0.14450  Biso   1.000  C
  C63      1.0000 0.00490  0.52250  0.36330  Biso   1.000  C
  C64      1.0000 0.03710  0.52770  0.29070  Biso   1.000  C
  C65      1.0000 0.10930  0.36330  0.52250  Biso   1.000  C
  C66      1.0000 0.14450  0.29070  0.52770  Biso   1.000  C
  C67      1.0000 0.36330  0.10930  0.00490  Biso   1.000  C
  C68      1.0000 0.29070  0.14450  0.03710  Biso   1.000  C
  C69      1.0000 0.52250  0.10930  0.36330  Biso   1.000  C
  C70      1.0000 0.52770  0.14450  0.29070  Biso   1.000  C
  C71      1.0000 0.00490  0.36330  0.10930  Biso   1.000  C
  C72      1.0000 0.03710  0.29070  0.14450  Biso   1.000  C
  C73      1.0000 0.10930  0.52250  0.00490  Biso   1.000  C
  C74      1.0000 0.14450  0.52770  0.03710  Biso   1.000  C
  C75      1.0000 0.36330  0.00490  0.52250  Biso   1.000  C
  C76      1.0000 0.29070  0.03710  0.52770  Biso   1.000  C
  C77      1.0000 0.52250  0.36330  0.00490  Biso   1.000  C
  C78      1.0000 0.52770  0.29070  0.03710  Biso   1.000  C
  C79      1.0000 0.00490  0.10930  0.52250  Biso   1.000  C
  C80      1.0000 0.03710  0.14450  0.52770  Biso   1.000  C
  C81      1.0000 0.10930  0.00490  0.36330  Biso   1.000  C
  C82      1.0000 0.14450  0.03710  0.29070  Biso   1.000  C
  C83      1.0000 0.36330  0.52250  0.10930  Biso   1.000  C
  C84      1.0000 0.29070  0.52770  0.14450  Biso   1.000  C
  C85      1.0000 0.99510  0.47750  0.89070  Biso   1.000  C
  C86      1.0000 0.96290  0.47230  0.85550  Biso   1.000  C
  C87      1.0000 0.47750  0.99510  0.63670  Biso   1.000  C
  C88      1.0000 0.47230  0.96290  0.70930  Biso   1.000  C
  C89      1.0000 0.63670  0.89070  0.47750  Biso   1.000  C
  C90      1.0000 0.70930  0.85550  0.47230  Biso   1.000  C
  C91      1.0000 0.89070  0.63670  0.99510  Biso   1.000  C
  C92      1.0000 0.85550  0.70930  0.96290  Biso   1.000  C
  C93      1.0000 0.89070  0.47750  0.63670  Biso   1.000  C
  C94      1.0000 0.85550  0.47230  0.70930  Biso   1.000  C
  C95      1.0000 0.63670  0.99510  0.89070  Biso   1.000  C
  C96      1.0000 0.70930  0.96290  0.85550  Biso   1.000  C
  C97      1.0000 0.47750  0.89070  0.99510  Biso   1.000  C
  C98      1.0000 0.47230  0.85550  0.96290  Biso   1.000  C
  C99      1.0000 0.99510  0.63670  0.47750  Biso   1.000  C
  C100     1.0000 0.96290  0.70930  0.47230  Biso   1.000  C
  C101     1.0000 0.63670  0.47750  0.99510  Biso   1.000  C
  C102     1.0000 0.70930  0.47230  0.96290  Biso   1.000  C
  C103     1.0000 0.89070  0.99510  0.47750  Biso   1.000  C
  C104     1.0000 0.85550  0.96290  0.47230  Biso   1.000  C
  C105     1.0000 0.99510  0.89070  0.63670  Biso   1.000  C
  C106     1.0000 0.96290  0.85550  0.70930  Biso   1.000  C
  C107     1.0000 0.47750  0.63670  0.89070  Biso   1.000  C
  C108     1.0000 0.47230  0.70930  0.85550  Biso   1.000  C
  C109     1.0000 0.47690  0.96670  0.90500  Biso   1.000  C
  C110     1.0000 0.47327  0.94779  0.88379  Biso   1.000  C
  C111     1.0000 0.96670  0.47690  0.65140  Biso   1.000  C
  C112     1.0000 0.94779  0.47327  0.69515  Biso   1.000  C
  C113     1.0000 0.90500  0.65140  0.47690  Biso   1.000  C
  C114     1.0000 0.88379  0.69515  0.47327  Biso   1.000  C
  C115     1.0000 0.65140  0.90500  0.96670  Biso   1.000  C
  C116     1.0000 0.69515  0.88379  0.94779  Biso   1.000  C
  C117     1.0000 0.47690  0.90500  0.65140  Biso   1.000  C
  C118     1.0000 0.47327  0.88379  0.69515  Biso   1.000  C
  C119     1.0000 0.96670  0.65140  0.90500  Biso   1.000  C
  C120     1.0000 0.94779  0.69515  0.88379  Biso   1.000  C
  C121     1.0000 0.90500  0.47690  0.96670  Biso   1.000  C
  C122     1.0000 0.88379  0.47327  0.94779  Biso   1.000  C
  C123     1.0000 0.65140  0.96670  0.47690  Biso   1.000  C
  C124     1.0000 0.69515  0.94779  0.47327  Biso   1.000  C
  C125     1.0000 0.47690  0.65140  0.96670  Biso   1.000  C
  C126     1.0000 0.47327  0.69515  0.94779  Biso   1.000  C
  C127     1.0000 0.96670  0.90500  0.47690  Biso   1.000  C
  C128     1.0000 0.94779  0.88379  0.47327  Biso   1.000  C
  C129     1.0000 0.90500  0.96670  0.65140  Biso   1.000  C
  C130     1.0000 0.88379  0.94779  0.69515  Biso   1.000  C
  C131     1.0000 0.65140  0.47690  0.90500  Biso   1.000  C
  C132     1.0000 0.69515  0.47327  0.88379  Biso   1.000  C
  C133     1.0000 0.03330  0.52310  0.09500  Biso   1.000  C
  C134     1.0000 0.05221  0.52673  0.11621  Biso   1.000  C
  C135     1.0000 0.52310  0.03330  0.34860  Biso   1.000  C
  C136     1.0000 0.52673  0.05221  0.30485  Biso   1.000  C
  C137     1.0000 0.34860  0.09500  0.52310  Biso   1.000  C
  C138     1.0000 0.30485  0.11621  0.52673  Biso   1.000  C
  C139     1.0000 0.09500  0.34860  0.03330  Biso   1.000  C
  C140     1.0000 0.11621  0.30485  0.05221  Biso   1.000  C
  C141     1.0000 0.09500  0.52310  0.34860  Biso   1.000  C
  C142     1.0000 0.11621  0.52673  0.30485  Biso   1.000  C
  C143     1.0000 0.34860  0.03330  0.09500  Biso   1.000  C
  C144     1.0000 0.30485  0.05221  0.11621  Biso   1.000  C
  C145     1.0000 0.52310  0.09500  0.03330  Biso   1.000  C
  C146     1.0000 0.52673  0.11621  0.05221  Biso   1.000  C
  C147     1.0000 0.03330  0.34860  0.52310  Biso   1.000  C
  C148     1.0000 0.05221  0.30485  0.52673  Biso   1.000  C
  C149     1.0000 0.34860  0.52310  0.03330  Biso   1.000  C
  C150     1.0000 0.30485  0.52673  0.05221  Biso   1.000  C
  C151     1.0000 0.09500  0.03330  0.52310  Biso   1.000  C
  C152     1.0000 0.11621  0.05221  0.52673  Biso   1.000  C
  C153     1.0000 0.03330  0.09500  0.34860  Biso   1.000  C
  C154     1.0000 0.05221  0.11621  0.30485  Biso   1.000  C
  C155     1.0000 0.52310  0.34860  0.09500  Biso   1.000  C
  C156     1.0000 0.52673  0.30485  0.11621  Biso   1.000  C
  C157     1.0000 0.52310  0.03330  0.09500  Biso   1.000  C
  C158     1.0000 0.52673  0.05221  0.11621  Biso   1.000  C
  C159     1.0000 0.03330  0.52310  0.34860  Biso   1.000  C
  C160     1.0000 0.05221  0.52673  0.30485  Biso   1.000  C
  C161     1.0000 0.09500  0.34860  0.52310  Biso   1.000  C
  C162     1.0000 0.11621  0.30485  0.52673  Biso   1.000  C
  C163     1.0000 0.34860  0.09500  0.03330  Biso   1.000  C
  C164     1.0000 0.30485  0.11621  0.05221  Biso   1.000  C
  C165     1.0000 0.52310  0.09500  0.34860  Biso   1.000  C
  C166     1.0000 0.52673  0.11621  0.30485  Biso   1.000  C
  C167     1.0000 0.03330  0.34860  0.09500  Biso   1.000  C
  C168     1.0000 0.05221  0.30485  0.11621  Biso   1.000  C
  C169     1.0000 0.09500  0.52310  0.03330  Biso   1.000  C
  C170     1.0000 0.11621  0.52673  0.05221  Biso   1.000  C
  C171     1.0000 0.34860  0.03330  0.52310  Biso   1.000  C
  C172     1.0000 0.30485  0.05221  0.52673  Biso   1.000  C
  C173     1.0000 0.52310  0.34860  0.03330  Biso   1.000  C
  C174     1.0000 0.52673  0.30485  0.05221  Biso   1.000  C
  C175     1.0000 0.03330  0.09500  0.52310  Biso   1.000  C
  C176     1.0000 0.05221  0.11621  0.52673  Biso   1.000  C
  C177     1.0000 0.09500  0.03330  0.34860  Biso   1.000  C
  C178     1.0000 0.11621  0.05221  0.30485  Biso   1.000  C
  C179     1.0000 0.34860  0.52310  0.09500  Biso   1.000  C
  C180     1.0000 0.30485  0.52673  0.11621  Biso   1.000  C
  C181     1.0000 0.96670  0.47690  0.90500  Biso   1.000  C
  C182     1.0000 0.94779  0.47327  0.88379  Biso   1.000  C
  C183     1.0000 0.47690  0.96670  0.65140  Biso   1.000  C
  C184     1.0000 0.47327  0.94779  0.69515  Biso   1.000  C
  C185     1.0000 0.65140  0.90500  0.47690  Biso   1.000  C
  C186     1.0000 0.69515  0.88379  0.47327  Biso   1.000  C
  C187     1.0000 0.90500  0.65140  0.96670  Biso   1.000  C
  C188     1.0000 0.88379  0.69515  0.94779  Biso   1.000  C
  C189     1.0000 0.90500  0.47690  0.65140  Biso   1.000  C
  C190     1.0000 0.88379  0.47327  0.69515  Biso   1.000  C
  C191     1.0000 0.65140  0.96670  0.90500  Biso   1.000  C
  C192     1.0000 0.69515  0.94779  0.88379  Biso   1.000  C
  C193     1.0000 0.47690  0.90500  0.96670  Biso   1.000  C
  C194     1.0000 0.47327  0.88379  0.94779  Biso   1.000  C
  C195     1.0000 0.96670  0.65140  0.47690  Biso   1.000  C
  C196     1.0000 0.94779  0.69515  0.47327  Biso   1.000  C
  C197     1.0000 0.65140  0.47690  0.96670  Biso   1.000  C
  C198     1.0000 0.69515  0.47327  0.94779  Biso   1.000  C
  C199     1.0000 0.90500  0.96670  0.47690  Biso   1.000  C
  C200     1.0000 0.88379  0.94779  0.47327  Biso   1.000  C
  C201     1.0000 0.96670  0.90500  0.65140  Biso   1.000  C
  C202     1.0000 0.94779  0.88379  0.69515  Biso   1.000  C
  C203     1.0000 0.47690  0.65140  0.90500  Biso   1.000  C
  C204     1.0000 0.47327  0.69515  0.88379  Biso   1.000  C
  C205     1.0000 0.48708  0.96664  0.96664  Biso   1.000  C
  C206     1.0000 0.47951  0.94549  0.94549  Biso   1.000  C
  C207     1.0000 0.47100  0.90574  0.90574  Biso   1.000  C
  C208     1.0000 0.46708  0.88498  0.88498  Biso   1.000  C
  C209     1.0000 0.96664  0.48708  0.57964  Biso   1.000  C
  C210     1.0000 0.94549  0.47951  0.62951  Biso   1.000  C
  C211     1.0000 0.90574  0.47100  0.71752  Biso   1.000  C
  C212     1.0000 0.88498  0.46708  0.76296  Biso   1.000  C
  C213     1.0000 0.96664  0.57964  0.48708  Biso   1.000  C
  C214     1.0000 0.94549  0.62951  0.47951  Biso   1.000  C
  C215     1.0000 0.90574  0.71752  0.47100  Biso   1.000  C
  C216     1.0000 0.88498  0.76296  0.46708  Biso   1.000  C
  C217     1.0000 0.57964  0.96664  0.96664  Biso   1.000  C
  C218     1.0000 0.62951  0.94549  0.94549  Biso   1.000  C
  C219     1.0000 0.71752  0.90574  0.90574  Biso   1.000  C
  C220     1.0000 0.76296  0.88498  0.88498  Biso   1.000  C
  C221     1.0000 0.48708  0.96664  0.57964  Biso   1.000  C
  C222     1.0000 0.47951  0.94549  0.62951  Biso   1.000  C
  C223     1.0000 0.47100  0.90574  0.71752  Biso   1.000  C
  C224     1.0000 0.46708  0.88498  0.76296  Biso   1.000  C
  C225     1.0000 0.96664  0.57964  0.96664  Biso   1.000  C
  C226     1.0000 0.94549  0.62951  0.94549  Biso   1.000  C
  C227     1.0000 0.90574  0.71752  0.90574  Biso   1.000  C
  C228     1.0000 0.88498  0.76296  0.88498  Biso   1.000  C
  C229     1.0000 0.96664  0.48708  0.96664  Biso   1.000  C
  C230     1.0000 0.94549  0.47951  0.94549  Biso   1.000  C
  C231     1.0000 0.90574  0.47100  0.90574  Biso   1.000  C
  C232     1.0000 0.88498  0.46708  0.88498  Biso   1.000  C
  C233     1.0000 0.57964  0.96664  0.48708  Biso   1.000  C
  C234     1.0000 0.62951  0.94549  0.47951  Biso   1.000  C
  C235     1.0000 0.71752  0.90574  0.47100  Biso   1.000  C
  C236     1.0000 0.76296  0.88498  0.46708  Biso   1.000  C
  C237     1.0000 0.48708  0.57964  0.96664  Biso   1.000  C
  C238     1.0000 0.47951  0.62951  0.94549  Biso   1.000  C
  C239     1.0000 0.47100  0.71752  0.90574  Biso   1.000  C
  C240     1.0000 0.46708  0.76296  0.88498  Biso   1.000  C
  C241     1.0000 0.96664  0.96664  0.48708  Biso   1.000  C
  C242     1.0000 0.94549  0.94549  0.47951  Biso   1.000  C
  C243     1.0000 0.90574  0.90574  0.47100  Biso   1.000  C
  C244     1.0000 0.88498  0.88498  0.46708  Biso   1.000  C
  C245     1.0000 0.96664  0.96664  0.57964  Biso   1.000  C
  C246     1.0000 0.94549  0.94549  0.62951  Biso   1.000  C
  C247     1.0000 0.90574  0.90574  0.71752  Biso   1.000  C
  C248     1.0000 0.88498  0.88498  0.76296  Biso   1.000  C
  C249     1.0000 0.57964  0.48708  0.96664  Biso   1.000  C
  C250     1.0000 0.62951  0.47951  0.94549  Biso   1.000  C
  C251     1.0000 0.71752  0.47100  0.90574  Biso   1.000  C
  C252     1.0000 0.76296  0.46708  0.88498  Biso   1.000  C
  C253     1.0000 0.03336  0.51292  0.03336  Biso   1.000  C
  C254     1.0000 0.05451  0.52049  0.05451  Biso   1.000  C
  C255     1.0000 0.09426  0.52900  0.09426  Biso   1.000  C
  C256     1.0000 0.11502  0.53292  0.11502  Biso   1.000  C
  C257     1.0000 0.51292  0.03336  0.42036  Biso   1.000  C
  C258     1.0000 0.52049  0.05451  0.37049  Biso   1.000  C
  C259     1.0000 0.52900  0.09426  0.28248  Biso   1.000  C
  C260     1.0000 0.53292  0.11502  0.23704  Biso   1.000  C
  C261     1.0000 0.42036  0.03336  0.51292  Biso   1.000  C
  C262     1.0000 0.37049  0.05451  0.52049  Biso   1.000  C
  C263     1.0000 0.28248  0.09426  0.52900  Biso   1.000  C
  C264     1.0000 0.23704  0.11502  0.53292  Biso   1.000  C
  C265     1.0000 0.03336  0.42036  0.03336  Biso   1.000  C
  C266     1.0000 0.05451  0.37049  0.05451  Biso   1.000  C
  C267     1.0000 0.09426  0.28248  0.09426  Biso   1.000  C
  C268     1.0000 0.11502  0.23704  0.11502  Biso   1.000  C
  C269     1.0000 0.03336  0.51292  0.42036  Biso   1.000  C
  C270     1.0000 0.05451  0.52049  0.37049  Biso   1.000  C
  C271     1.0000 0.09426  0.52900  0.28248  Biso   1.000  C
  C272     1.0000 0.11502  0.53292  0.23704  Biso   1.000  C
  C273     1.0000 0.42036  0.03336  0.03336  Biso   1.000  C
  C274     1.0000 0.37049  0.05451  0.05451  Biso   1.000  C
  C275     1.0000 0.28248  0.09426  0.09426  Biso   1.000  C
  C276     1.0000 0.23704  0.11502  0.11502  Biso   1.000  C
  C277     1.0000 0.51292  0.03336  0.03336  Biso   1.000  C
  C278     1.0000 0.52049  0.05451  0.05451  Biso   1.000  C
  C279     1.0000 0.52900  0.09426  0.09426  Biso   1.000  C
  C280     1.0000 0.53292  0.11502  0.11502  Biso   1.000  C
  C281     1.0000 0.03336  0.42036  0.51292  Biso   1.000  C
  C282     1.0000 0.05451  0.37049  0.52049  Biso   1.000  C
  C283     1.0000 0.09426  0.28248  0.52900  Biso   1.000  C
  C284     1.0000 0.11502  0.23704  0.53292  Biso   1.000  C
  C285     1.0000 0.42036  0.51292  0.03336  Biso   1.000  C
  C286     1.0000 0.37049  0.52049  0.05451  Biso   1.000  C
  C287     1.0000 0.28248  0.52900  0.09426  Biso   1.000  C
  C288     1.0000 0.23704  0.53292  0.11502  Biso   1.000  C
  C289     1.0000 0.03336  0.03336  0.51292  Biso   1.000  C
  C290     1.0000 0.05451  0.05451  0.52049  Biso   1.000  C
  C291     1.0000 0.09426  0.09426  0.52900  Biso   1.000  C
  C292     1.0000 0.11502  0.11502  0.53292  Biso   1.000  C
  C293     1.0000 0.03336  0.03336  0.42036  Biso   1.000  C
  C294     1.0000 0.05451  0.05451  0.37049  Biso   1.000  C
  C295     1.0000 0.09426  0.09426  0.28248  Biso   1.000  C
  C296     1.0000 0.11502  0.11502  0.23704  Biso   1.000  C
  C297     1.0000 0.51292  0.42036  0.03336  Biso   1.000  C
  C298     1.0000 0.52049  0.37049  0.05451  Biso   1.000  C
  C299     1.0000 0.52900  0.28248  0.09426  Biso   1.000  C
  C300     1.0000 0.53292  0.23704  0.11502  Biso   1.000  C
  C301     1.0000 0.46631  0.82307  0.88755  Biso   1.000  C
  C302     1.0000 0.82307  0.46631  0.82307  Biso   1.000  C
  C303     1.0000 0.88755  0.82307  0.46631  Biso   1.000  C
  C304     1.0000 0.82307  0.88755  0.82307  Biso   1.000  C
  C305     1.0000 0.46631  0.88755  0.82307  Biso   1.000  C
  C306     1.0000 0.82307  0.82307  0.88755  Biso   1.000  C
  C307     1.0000 0.88755  0.46631  0.82307  Biso   1.000  C
  C308     1.0000 0.82307  0.82307  0.46631  Biso   1.000  C
  C309     1.0000 0.46631  0.82307  0.82307  Biso   1.000  C
  C310     1.0000 0.82307  0.88755  0.46631  Biso   1.000  C
  C311     1.0000 0.88755  0.82307  0.82307  Biso   1.000  C
  C312     1.0000 0.82307  0.46631  0.88755  Biso   1.000  C
  C313     1.0000 0.17693  0.53369  0.11245  Biso   1.000  C
  C314     1.0000 0.53369  0.17693  0.17693  Biso   1.000  C
  C315     1.0000 0.17693  0.11245  0.53369  Biso   1.000  C
  C316     1.0000 0.11245  0.17693  0.17693  Biso   1.000  C
  C317     1.0000 0.11245  0.53369  0.17693  Biso   1.000  C
  C318     1.0000 0.17693  0.17693  0.11245  Biso   1.000  C
  C319     1.0000 0.53369  0.11245  0.17693  Biso   1.000  C
  C320     1.0000 0.17693  0.17693  0.53369  Biso   1.000  C
  C321     1.0000 0.17693  0.53369  0.17693  Biso   1.000  C
  C322     1.0000 0.11245  0.17693  0.53369  Biso   1.000  C
  C323     1.0000 0.17693  0.11245  0.17693  Biso   1.000  C
  C324     1.0000 0.53369  0.17693  0.11245  Biso   1.000  C
  C325     1.0000 0.46741  0.84337  0.90743  Biso   1.000  C
  C326     1.0000 0.84337  0.46741  0.78179  Biso   1.000  C
  C327     1.0000 0.90743  0.78179  0.46741  Biso   1.000  C
  C328     1.0000 0.78179  0.90743  0.84337  Biso   1.000  C
  C329     1.0000 0.46741  0.90743  0.78179  Biso   1.000  C
  C330     1.0000 0.84337  0.78179  0.90743  Biso   1.000  C
  C331     1.0000 0.90743  0.46741  0.84337  Biso   1.000  C
  C332     1.0000 0.78179  0.84337  0.46741  Biso   1.000  C
  C333     1.0000 0.46741  0.78179  0.84337  Biso   1.000  C
  C334     1.0000 0.84337  0.90743  0.46741  Biso   1.000  C
  C335     1.0000 0.90743  0.84337  0.78179  Biso   1.000  C
  C336     1.0000 0.78179  0.46741  0.90743  Biso   1.000  C
  C337     1.0000 0.15663  0.53259  0.09257  Biso   1.000  C
  C338     1.0000 0.53259  0.15663  0.21821  Biso   1.000  C
  C339     1.0000 0.21821  0.09257  0.53259  Biso   1.000  C
  C340     1.0000 0.09257  0.21821  0.15663  Biso   1.000  C
  C341     1.0000 0.09257  0.53259  0.21821  Biso   1.000  C
  C342     1.0000 0.21821  0.15663  0.09257  Biso   1.000  C
  C343     1.0000 0.53259  0.09257  0.15663  Biso   1.000  C
  C344     1.0000 0.15663  0.21821  0.53259  Biso   1.000  C
  C345     1.0000 0.21821  0.53259  0.15663  Biso   1.000  C
  C346     1.0000 0.09257  0.15663  0.53259  Biso   1.000  C
  C347     1.0000 0.15663  0.09257  0.21821  Biso   1.000  C
  C348     1.0000 0.53259  0.21821  0.09257  Biso   1.000  C
  C349     1.0000 0.53259  0.15663  0.09257  Biso   1.000  C
  C350     1.0000 0.15663  0.53259  0.21821  Biso   1.000  C
  C351     1.0000 0.09257  0.21821  0.53259  Biso   1.000  C
  C352     1.0000 0.21821  0.09257  0.15663  Biso   1.000  C
  C353     1.0000 0.53259  0.09257  0.21821  Biso   1.000  C
  C354     1.0000 0.15663  0.21821  0.09257  Biso   1.000  C
  C355     1.0000 0.09257  0.53259  0.15663  Biso   1.000  C
  C356     1.0000 0.21821  0.15663  0.53259  Biso   1.000  C
  C357     1.0000 0.53259  0.21821  0.15663  Biso   1.000  C
  C358     1.0000 0.15663  0.09257  0.53259  Biso   1.000  C
  C359     1.0000 0.09257  0.15663  0.21821  Biso   1.000  C
  C360     1.0000 0.21821  0.53259  0.09257  Biso   1.000  C
  C361     1.0000 0.84337  0.46741  0.90743  Biso   1.000  C
  C362     1.0000 0.46741  0.84337  0.78179  Biso   1.000  C
  C363     1.0000 0.78179  0.90743  0.46741  Biso   1.000  C
  C364     1.0000 0.90743  0.78179  0.84337  Biso   1.000  C
  C365     1.0000 0.90743  0.46741  0.78179  Biso   1.000  C
  C366     1.0000 0.78179  0.84337  0.90743  Biso   1.000  C
  C367     1.0000 0.46741  0.90743  0.84337  Biso   1.000  C
  C368     1.0000 0.84337  0.78179  0.46741  Biso   1.000  C
  C369     1.0000 0.78179  0.46741  0.84337  Biso   1.000  C
  C370     1.0000 0.90743  0.84337  0.46741  Biso   1.000  C
  C371     1.0000 0.84337  0.90743  0.78179  Biso   1.000  C
  C372     1.0000 0.46741  0.78179  0.90743  Biso   1.000  C
  C373     1.0000 0.46566  0.84478  0.84478  Biso   1.000  C
  C374     1.0000 0.84478  0.46566  0.84478  Biso   1.000  C
  C375     1.0000 0.84478  0.84478  0.46566  Biso   1.000  C
  C376     1.0000 0.84478  0.84478  0.84478  Biso   1.000  C
  C377     1.0000 0.15522  0.53434  0.15522  Biso   1.000  C
  C378     1.0000 0.53434  0.15522  0.15522  Biso   1.000  C
  C379     1.0000 0.15522  0.15522  0.53434  Biso   1.000  C
  C380     1.0000 0.15522  0.15522  0.15522  Biso   1.000  C
  C381     1.0000 0.48883  0.00359  0.94438  Biso   1.000  C
  C382     1.0000 0.00359  0.48883  0.56320  Biso   1.000  C
  C383     1.0000 0.94438  0.56320  0.48883  Biso   1.000  C
  C384     1.0000 0.56320  0.94438  0.00359  Biso   1.000  C
  C385     1.0000 0.48883  0.94438  0.56320  Biso   1.000  C
  C386     1.0000 0.00359  0.56320  0.94438  Biso   1.000  C
  C387     1.0000 0.94438  0.48883  0.00359  Biso   1.000  C
  C388     1.0000 0.56320  0.00359  0.48883  Biso   1.000  C
  C389     1.0000 0.48883  0.56320  0.00359  Biso   1.000  C
  C390     1.0000 0.00359  0.94438  0.48883  Biso   1.000  C
  C391     1.0000 0.94438  0.00359  0.56320  Biso   1.000  C
  C392     1.0000 0.56320  0.48883  0.94438  Biso   1.000  C
  C393     1.0000 0.99641  0.51117  0.05562  Biso   1.000  C
  C394     1.0000 0.51117  0.99641  0.43680  Biso   1.000  C
  C395     1.0000 0.43680  0.05562  0.51117  Biso   1.000  C
  C396     1.0000 0.05562  0.43680  0.99641  Biso   1.000  C
  C397     1.0000 0.05562  0.51117  0.43680  Biso   1.000  C
  C398     1.0000 0.43680  0.99641  0.05562  Biso   1.000  C
  C399     1.0000 0.51117  0.05562  0.99641  Biso   1.000  C
  C400     1.0000 0.99641  0.43680  0.51117  Biso   1.000  C
  C401     1.0000 0.43680  0.51117  0.99641  Biso   1.000  C
  C402     1.0000 0.05562  0.99641  0.51117  Biso   1.000  C
  C403     1.0000 0.99641  0.05562  0.43680  Biso   1.000  C
  C404     1.0000 0.51117  0.43680  0.05562  Biso   1.000  C
  C405     1.0000 0.51117  0.99641  0.05562  Biso   1.000  C
  C406     1.0000 0.99641  0.51117  0.43680  Biso   1.000  C
  C407     1.0000 0.05562  0.43680  0.51117  Biso   1.000  C
  C408     1.0000 0.43680  0.05562  0.99641  Biso   1.000  C
  C409     1.0000 0.51117  0.05562  0.43680  Biso   1.000  C
  C410     1.0000 0.99641  0.43680  0.05562  Biso   1.000  C
  C411     1.0000 0.05562  0.51117  0.99641  Biso   1.000  C
  C412     1.0000 0.43680  0.99641  0.51117  Biso   1.000  C
  C413     1.0000 0.51117  0.43680  0.99641  Biso   1.000  C
  C414     1.0000 0.99641  0.05562  0.51117  Biso   1.000  C
  C415     1.0000 0.05562  0.99641  0.43680  Biso   1.000  C
  C416     1.0000 0.43680  0.51117  0.05562  Biso   1.000  C
  C417     1.0000 0.00359  0.48883  0.94438  Biso   1.000  C
  C418     1.0000 0.48883  0.00359  0.56320  Biso   1.000  C
  C419     1.0000 0.56320  0.94438  0.48883  Biso   1.000  C
  C420     1.0000 0.94438  0.56320  0.00359  Biso   1.000  C
  C421     1.0000 0.94438  0.48883  0.56320  Biso   1.000  C
  C422     1.0000 0.56320  0.00359  0.94438  Biso   1.000  C
  C423     1.0000 0.48883  0.94438  0.00359  Biso   1.000  C
  C424     1.0000 0.00359  0.56320  0.48883  Biso   1.000  C
  C425     1.0000 0.56320  0.48883  0.00359  Biso   1.000  C
  C426     1.0000 0.94438  0.00359  0.48883  Biso   1.000  C
  C427     1.0000 0.00359  0.94438  0.56320  Biso   1.000  C
  C428     1.0000 0.48883  0.56320  0.94438  Biso   1.000  C
  O1       1.0000 0.68752  0.22286  0.16342  Biso   1.000  O
  O2       1.0000 0.22301  0.68737  0.69891  Biso   1.000  O
  O3       1.0000 0.15203  0.68737  0.69891  Biso   1.000  O
  O4       1.0000 0.68752  0.15188  0.23440  Biso   1.000  O
  O5       1.0000 0.68752  0.15188  0.69891  Biso   1.000  O
  O6       1.0000 0.22301  0.68737  0.16342  Biso   1.000  O
  O7       1.0000 0.15203  0.68737  0.23440  Biso   1.000  O
  O8       1.0000 0.68752  0.22286  0.69891  Biso   1.000  O
  O9       1.0000 0.68752  0.68737  0.23440  Biso   1.000  O
  O10      1.0000 0.22301  0.15188  0.69891  Biso   1.000  O
  O11      1.0000 0.15203  0.22286  0.69891  Biso   1.000  O
  O12      1.0000 0.68752  0.68737  0.16342  Biso   1.000  O
  O13      1.0000 0.66502  0.18247  0.08961  Biso   1.000  O
  O14      1.0000 0.65982  0.15027  0.05441  Biso   1.000  O
  O15      1.0000 0.18262  0.66487  0.83561  Biso   1.000  O
  O16      1.0000 0.15042  0.65967  0.90821  Biso   1.000  O
  O17      1.0000 0.07822  0.82407  0.67641  Biso   1.000  O
  O18      1.0000 0.04302  0.89667  0.67121  Biso   1.000  O
  O19      1.0000 0.82422  0.07807  0.19401  Biso   1.000  O
  O20      1.0000 0.89682  0.04287  0.16181  Biso   1.000  O
  O21      1.0000 0.66502  0.07807  0.83561  Biso   1.000  O
  O22      1.0000 0.65982  0.04287  0.90821  Biso   1.000  O
  O23      1.0000 0.18262  0.82407  0.08961  Biso   1.000  O
  O24      1.0000 0.15042  0.89667  0.05441  Biso   1.000  O
  O25      1.0000 0.07822  0.66487  0.19401  Biso   1.000  O
  O26      1.0000 0.04302  0.65967  0.16181  Biso   1.000  O
  O27      1.0000 0.82422  0.18247  0.67641  Biso   1.000  O
  O28      1.0000 0.89682  0.15027  0.67121  Biso   1.000  O
  O29      1.0000 0.66502  0.82407  0.19401  Biso   1.000  O
  O30      1.0000 0.65982  0.89667  0.16181  Biso   1.000  O
  O31      1.0000 0.18262  0.07807  0.67641  Biso   1.000  O
  O32      1.0000 0.15042  0.04287  0.67121  Biso   1.000  O
  O33      1.0000 0.07822  0.18247  0.83561  Biso   1.000  O
  O34      1.0000 0.04302  0.15027  0.90821  Biso   1.000  O
  O35      1.0000 0.82422  0.66487  0.08961  Biso   1.000  O
  O36      1.0000 0.89682  0.65967  0.05441  Biso   1.000  O
  O37      1.0000 0.19242  0.70987  0.30821  Biso   1.000  O
  O38      1.0000 0.22462  0.71507  0.34341  Biso   1.000  O
  O39      1.0000 0.71002  0.19227  0.56221  Biso   1.000  O
  O40      1.0000 0.71522  0.22447  0.48961  Biso   1.000  O
  O41      1.0000 0.55082  0.29667  0.72141  Biso   1.000  O
  O42      1.0000 0.47822  0.33187  0.72661  Biso   1.000  O
  O43      1.0000 0.29682  0.55067  0.20381  Biso   1.000  O
  O44      1.0000 0.33202  0.47807  0.23601  Biso   1.000  O
  O45      1.0000 0.29682  0.70987  0.56221  Biso   1.000  O
  O46      1.0000 0.33202  0.71507  0.48961  Biso   1.000  O
  O47      1.0000 0.55082  0.19227  0.30821  Biso   1.000  O
  O48      1.0000 0.47822  0.22447  0.34341  Biso   1.000  O
  O49      1.0000 0.71002  0.29667  0.20381  Biso   1.000  O
  O50      1.0000 0.71522  0.33187  0.23601  Biso   1.000  O
  O51      1.0000 0.19242  0.55067  0.72141  Biso   1.000  O
  O52      1.0000 0.22462  0.47807  0.72661  Biso   1.000  O
  O53      1.0000 0.55082  0.70987  0.20381  Biso   1.000  O
  O54      1.0000 0.47822  0.71507  0.23601  Biso   1.000  O
  O55      1.0000 0.29682  0.19227  0.72141  Biso   1.000  O
  O56      1.0000 0.33202  0.22447  0.72661  Biso   1.000  O
  O57      1.0000 0.19242  0.29667  0.56221  Biso   1.000  O
  O58      1.0000 0.22462  0.33187  0.48961  Biso   1.000  O
  O59      1.0000 0.71002  0.55067  0.30821  Biso   1.000  O
  O60      1.0000 0.71522  0.47807  0.34341  Biso   1.000  O
  O61      1.0000 0.71002  0.19227  0.30821  Biso   1.000  O
  O62      1.0000 0.71522  0.22447  0.34341  Biso   1.000  O
  O63      1.0000 0.19242  0.70987  0.56221  Biso   1.000  O
  O64      1.0000 0.22462  0.71507  0.48961  Biso   1.000  O
  O65      1.0000 0.29682  0.55067  0.72141  Biso   1.000  O
  O66      1.0000 0.33202  0.47807  0.72661  Biso   1.000  O
  O67      1.0000 0.55082  0.29667  0.20381  Biso   1.000  O
  O68      1.0000 0.47822  0.33187  0.23601  Biso   1.000  O
  O69      1.0000 0.71002  0.29667  0.56221  Biso   1.000  O
  O70      1.0000 0.71522  0.33187  0.48961  Biso   1.000  O
  O71      1.0000 0.19242  0.55067  0.30821  Biso   1.000  O
  O72      1.0000 0.22462  0.47807  0.34341  Biso   1.000  O
  O73      1.0000 0.29682  0.70987  0.20381  Biso   1.000  O
  O74      1.0000 0.33202  0.71507  0.23601  Biso   1.000  O
  O75      1.0000 0.55082  0.19227  0.72141  Biso   1.000  O
  O76      1.0000 0.47822  0.22447  0.72661  Biso   1.000  O
  O77      1.0000 0.71002  0.55067  0.20381  Biso   1.000  O
  O78      1.0000 0.71522  0.47807  0.23601  Biso   1.000  O
  O79      1.0000 0.19242  0.29667  0.72141  Biso   1.000  O
  O80      1.0000 0.22462  0.33187  0.72661  Biso   1.000  O
  O81      1.0000 0.29682  0.19227  0.56221  Biso   1.000  O
  O82      1.0000 0.33202  0.22447  0.48961  Biso   1.000  O
  O83      1.0000 0.55082  0.70987  0.30821  Biso   1.000  O
  O84      1.0000 0.47822  0.71507  0.34341  Biso   1.000  O
  O85      1.0000 0.18262  0.66487  0.08961  Biso   1.000  O
  O86      1.0000 0.15042  0.65967  0.05441  Biso   1.000  O
  O87      1.0000 0.66502  0.18247  0.83561  Biso   1.000  O
  O88      1.0000 0.65982  0.15027  0.90821  Biso   1.000  O
  O89      1.0000 0.82422  0.07807  0.67641  Biso   1.000  O
  O90      1.0000 0.89682  0.04287  0.67121  Biso   1.000  O
  O91      1.0000 0.07822  0.82407  0.19401  Biso   1.000  O
  O92      1.0000 0.04302  0.89667  0.16181  Biso   1.000  O
  O93      1.0000 0.07822  0.66487  0.83561  Biso   1.000  O
  O94      1.0000 0.04302  0.65967  0.90821  Biso   1.000  O
  O95      1.0000 0.82422  0.18247  0.08961  Biso   1.000  O
  O96      1.0000 0.89682  0.15027  0.05441  Biso   1.000  O
  O97      1.0000 0.66502  0.07807  0.19401  Biso   1.000  O
  O98      1.0000 0.65982  0.04287  0.16181  Biso   1.000  O
  O99      1.0000 0.18262  0.82407  0.67641  Biso   1.000  O
  O100     1.0000 0.15042  0.89667  0.67121  Biso   1.000  O
  O101     1.0000 0.82422  0.66487  0.19401  Biso   1.000  O
  O102     1.0000 0.89682  0.65967  0.16181  Biso   1.000  O
  O103     1.0000 0.07822  0.18247  0.67641  Biso   1.000  O
  O104     1.0000 0.04302  0.15027  0.67121  Biso   1.000  O
  O105     1.0000 0.18262  0.07807  0.83561  Biso   1.000  O
  O106     1.0000 0.15042  0.04287  0.90821  Biso   1.000  O
  O107     1.0000 0.66502  0.82407  0.08961  Biso   1.000  O
  O108     1.0000 0.65982  0.89667  0.05441  Biso   1.000  O
  O109     1.0000 0.66442  0.15407  0.10391  Biso   1.000  O
  O110     1.0000 0.66079  0.13516  0.08270  Biso   1.000  O
  O111     1.0000 0.15422  0.66427  0.85031  Biso   1.000  O
  O112     1.0000 0.13531  0.66064  0.89406  Biso   1.000  O
  O113     1.0000 0.09252  0.83877  0.67581  Biso   1.000  O
  O114     1.0000 0.07131  0.88252  0.67218  Biso   1.000  O
  O115     1.0000 0.83892  0.09237  0.16561  Biso   1.000  O
  O116     1.0000 0.88267  0.07116  0.14670  Biso   1.000  O
  O117     1.0000 0.66442  0.09237  0.85031  Biso   1.000  O
  O118     1.0000 0.66079  0.07116  0.89406  Biso   1.000  O
  O119     1.0000 0.15422  0.83877  0.10391  Biso   1.000  O
  O120     1.0000 0.13531  0.88252  0.08270  Biso   1.000  O
  O121     1.0000 0.09252  0.66427  0.16561  Biso   1.000  O
  O122     1.0000 0.07131  0.66064  0.14670  Biso   1.000  O
  O123     1.0000 0.83892  0.15407  0.67581  Biso   1.000  O
  O124     1.0000 0.88267  0.13516  0.67218  Biso   1.000  O
  O125     1.0000 0.66442  0.83877  0.16561  Biso   1.000  O
  O126     1.0000 0.66079  0.88252  0.14670  Biso   1.000  O
  O127     1.0000 0.15422  0.09237  0.67581  Biso   1.000  O
  O128     1.0000 0.13531  0.07116  0.67218  Biso   1.000  O
  O129     1.0000 0.09252  0.15407  0.85031  Biso   1.000  O
  O130     1.0000 0.07131  0.13516  0.89406  Biso   1.000  O
  O131     1.0000 0.83892  0.66427  0.10391  Biso   1.000  O
  O132     1.0000 0.88267  0.66064  0.08270  Biso   1.000  O
  O133     1.0000 0.22082  0.71047  0.29391  Biso   1.000  O
  O134     1.0000 0.23973  0.71410  0.31512  Biso   1.000  O
  O135     1.0000 0.71062  0.22067  0.54751  Biso   1.000  O
  O136     1.0000 0.71425  0.23958  0.50376  Biso   1.000  O
  O137     1.0000 0.53612  0.28237  0.72201  Biso   1.000  O
  O138     1.0000 0.49237  0.30358  0.72564  Biso   1.000  O
  O139     1.0000 0.28252  0.53597  0.23221  Biso   1.000  O
  O140     1.0000 0.30373  0.49222  0.25112  Biso   1.000  O
  O141     1.0000 0.28252  0.71047  0.54751  Biso   1.000  O
  O142     1.0000 0.30373  0.71410  0.50376  Biso   1.000  O
  O143     1.0000 0.53612  0.22067  0.29391  Biso   1.000  O
  O144     1.0000 0.49237  0.23958  0.31512  Biso   1.000  O
  O145     1.0000 0.71062  0.28237  0.23221  Biso   1.000  O
  O146     1.0000 0.71425  0.30358  0.25112  Biso   1.000  O
  O147     1.0000 0.22082  0.53597  0.72201  Biso   1.000  O
  O148     1.0000 0.23973  0.49222  0.72564  Biso   1.000  O
  O149     1.0000 0.53612  0.71047  0.23221  Biso   1.000  O
  O150     1.0000 0.49237  0.71410  0.25112  Biso   1.000  O
  O151     1.0000 0.28252  0.22067  0.72201  Biso   1.000  O
  O152     1.0000 0.30373  0.23958  0.72564  Biso   1.000  O
  O153     1.0000 0.22082  0.28237  0.54751  Biso   1.000  O
  O154     1.0000 0.23973  0.30358  0.50376  Biso   1.000  O
  O155     1.0000 0.71062  0.53597  0.29391  Biso   1.000  O
  O156     1.0000 0.71425  0.49222  0.31512  Biso   1.000  O
  O157     1.0000 0.71062  0.22067  0.29391  Biso   1.000  O
  O158     1.0000 0.71425  0.23958  0.31512  Biso   1.000  O
  O159     1.0000 0.22082  0.71047  0.54751  Biso   1.000  O
  O160     1.0000 0.23973  0.71410  0.50376  Biso   1.000  O
  O161     1.0000 0.28252  0.53597  0.72201  Biso   1.000  O
  O162     1.0000 0.30373  0.49222  0.72564  Biso   1.000  O
  O163     1.0000 0.53612  0.28237  0.23221  Biso   1.000  O
  O164     1.0000 0.49237  0.30358  0.25112  Biso   1.000  O
  O165     1.0000 0.71062  0.28237  0.54751  Biso   1.000  O
  O166     1.0000 0.71425  0.30358  0.50376  Biso   1.000  O
  O167     1.0000 0.22082  0.53597  0.29391  Biso   1.000  O
  O168     1.0000 0.23973  0.49222  0.31512  Biso   1.000  O
  O169     1.0000 0.28252  0.71047  0.23221  Biso   1.000  O
  O170     1.0000 0.30373  0.71410  0.25112  Biso   1.000  O
  O171     1.0000 0.53612  0.22067  0.72201  Biso   1.000  O
  O172     1.0000 0.49237  0.23958  0.72564  Biso   1.000  O
  O173     1.0000 0.71062  0.53597  0.23221  Biso   1.000  O
  O174     1.0000 0.71425  0.49222  0.25112  Biso   1.000  O
  O175     1.0000 0.22082  0.28237  0.72201  Biso   1.000  O
  O176     1.0000 0.23973  0.30358  0.72564  Biso   1.000  O
  O177     1.0000 0.28252  0.22067  0.54751  Biso   1.000  O
  O178     1.0000 0.30373  0.23958  0.50376  Biso   1.000  O
  O179     1.0000 0.53612  0.71047  0.29391  Biso   1.000  O
  O180     1.0000 0.49237  0.71410  0.31512  Biso   1.000  O
  O181     1.0000 0.15422  0.66427  0.10391  Biso   1.000  O
  O182     1.0000 0.13531  0.66064  0.08270  Biso   1.000  O
  O183     1.0000 0.66442  0.15407  0.85031  Biso   1.000  O
  O184     1.0000 0.66079  0.13516  0.89406  Biso   1.000  O
  O185     1.0000 0.83892  0.09237  0.67581  Biso   1.000  O
  O186     1.0000 0.88267  0.07116  0.67218  Biso   1.000  O
  O187     1.0000 0.09252  0.83877  0.16561  Biso   1.000  O
  O188     1.0000 0.07131  0.88252  0.14670  Biso   1.000  O
  O189     1.0000 0.09252  0.66427  0.85031  Biso   1.000  O
  O190     1.0000 0.07131  0.66064  0.89406  Biso   1.000  O
  O191     1.0000 0.83892  0.15407  0.10391  Biso   1.000  O
  O192     1.0000 0.88267  0.13516  0.08270  Biso   1.000  O
  O193     1.0000 0.66442  0.09237  0.16561  Biso   1.000  O
  O194     1.0000 0.66079  0.07116  0.14670  Biso   1.000  O
  O195     1.0000 0.15422  0.83877  0.67581  Biso   1.000  O
  O196     1.0000 0.13531  0.88252  0.67218  Biso   1.000  O
  O197     1.0000 0.83892  0.66427  0.16561  Biso   1.000  O
  O198     1.0000 0.88267  0.66064  0.14670  Biso   1.000  O
  O199     1.0000 0.09252  0.15407  0.67581  Biso   1.000  O
  O200     1.0000 0.07131  0.13516  0.67218  Biso   1.000  O
  O201     1.0000 0.15422  0.09237  0.85031  Biso   1.000  O
  O202     1.0000 0.13531  0.07116  0.89406  Biso   1.000  O
  O203     1.0000 0.66442  0.83877  0.10391  Biso   1.000  O
  O204     1.0000 0.66079  0.88252  0.08270  Biso   1.000  O
  O205     1.0000 0.67460  0.15401  0.16555  Biso   1.000  O
  O206     1.0000 0.66703  0.13286  0.14440  Biso   1.000  O
  O207     1.0000 0.65852  0.09311  0.10465  Biso   1.000  O
  O208     1.0000 0.65460  0.07235  0.08389  Biso   1.000  O
  O209     1.0000 0.15416  0.67445  0.77855  Biso   1.000  O
  O210     1.0000 0.13301  0.66688  0.82842  Biso   1.000  O
  O211     1.0000 0.09326  0.65837  0.91643  Biso   1.000  O
  O212     1.0000 0.07250  0.65445  0.96187  Biso   1.000  O
  O213     1.0000 0.15416  0.76701  0.68599  Biso   1.000  O
  O214     1.0000 0.13301  0.81688  0.67842  Biso   1.000  O
  O215     1.0000 0.09326  0.90489  0.66991  Biso   1.000  O
  O216     1.0000 0.07250  0.95033  0.66599  Biso   1.000  O
  O217     1.0000 0.76716  0.15401  0.16555  Biso   1.000  O
  O218     1.0000 0.81703  0.13286  0.14440  Biso   1.000  O
  O219     1.0000 0.90504  0.09311  0.10465  Biso   1.000  O
  O220     1.0000 0.95048  0.07235  0.08389  Biso   1.000  O
  O221     1.0000 0.67460  0.15401  0.77855  Biso   1.000  O
  O222     1.0000 0.66703  0.13286  0.82842  Biso   1.000  O
  O223     1.0000 0.65852  0.09311  0.91643  Biso   1.000  O
  O224     1.0000 0.65460  0.07235  0.96187  Biso   1.000  O
  O225     1.0000 0.15416  0.76701  0.16555  Biso   1.000  O
  O226     1.0000 0.13301  0.81688  0.14440  Biso   1.000  O
  O227     1.0000 0.09326  0.90489  0.10465  Biso   1.000  O
  O228     1.0000 0.07250  0.95033  0.08389  Biso   1.000  O
  O229     1.0000 0.15416  0.67445  0.16555  Biso   1.000  O
  O230     1.0000 0.13301  0.66688  0.14440  Biso   1.000  O
  O231     1.0000 0.09326  0.65837  0.10465  Biso   1.000  O
  O232     1.0000 0.07250  0.65445  0.08389  Biso   1.000  O
  O233     1.0000 0.76716  0.15401  0.68599  Biso   1.000  O
  O234     1.0000 0.81703  0.13286  0.67842  Biso   1.000  O
  O235     1.0000 0.90504  0.09311  0.66991  Biso   1.000  O
  O236     1.0000 0.95048  0.07235  0.66599  Biso   1.000  O
  O237     1.0000 0.67460  0.76701  0.16555  Biso   1.000  O
  O238     1.0000 0.66703  0.81688  0.14440  Biso   1.000  O
  O239     1.0000 0.65852  0.90489  0.10465  Biso   1.000  O
  O240     1.0000 0.65460  0.95033  0.08389  Biso   1.000  O
  O241     1.0000 0.15416  0.15401  0.68599  Biso   1.000  O
  O242     1.0000 0.13301  0.13286  0.67842  Biso   1.000  O
  O243     1.0000 0.09326  0.09311  0.66991  Biso   1.000  O
  O244     1.0000 0.07250  0.07235  0.66599  Biso   1.000  O
  O245     1.0000 0.15416  0.15401  0.77855  Biso   1.000  O
  O246     1.0000 0.13301  0.13286  0.82842  Biso   1.000  O
  O247     1.0000 0.09326  0.09311  0.91643  Biso   1.000  O
  O248     1.0000 0.07250  0.07235  0.96187  Biso   1.000  O
  O249     1.0000 0.76716  0.67445  0.16555  Biso   1.000  O
  O250     1.0000 0.81703  0.66688  0.14440  Biso   1.000  O
  O251     1.0000 0.90504  0.65837  0.10465  Biso   1.000  O
  O252     1.0000 0.95048  0.65445  0.08389  Biso   1.000  O
  O253     1.0000 0.22088  0.70029  0.23227  Biso   1.000  O
  O254     1.0000 0.24203  0.70786  0.25342  Biso   1.000  O
  O255     1.0000 0.28178  0.71637  0.29317  Biso   1.000  O
  O256     1.0000 0.30254  0.72029  0.31393  Biso   1.000  O
  O257     1.0000 0.70044  0.22073  0.61927  Biso   1.000  O
  O258     1.0000 0.70801  0.24188  0.56940  Biso   1.000  O
  O259     1.0000 0.71652  0.28163  0.48139  Biso   1.000  O
  O260     1.0000 0.72044  0.30239  0.43595  Biso   1.000  O
  O261     1.0000 0.60788  0.22073  0.71183  Biso   1.000  O
  O262     1.0000 0.55801  0.24188  0.71940  Biso   1.000  O
  O263     1.0000 0.47000  0.28163  0.72791  Biso   1.000  O
  O264     1.0000 0.42456  0.30239  0.73183  Biso   1.000  O
  O265     1.0000 0.22088  0.60773  0.23227  Biso   1.000  O
  O266     1.0000 0.24203  0.55786  0.25342  Biso   1.000  O
  O267     1.0000 0.28178  0.46985  0.29317  Biso   1.000  O
  O268     1.0000 0.30254  0.42441  0.31393  Biso   1.000  O
  O269     1.0000 0.22088  0.70029  0.61927  Biso   1.000  O
  O270     1.0000 0.24203  0.70786  0.56940  Biso   1.000  O
  O271     1.0000 0.28178  0.71637  0.48139  Biso   1.000  O
  O272     1.0000 0.30254  0.72029  0.43595  Biso   1.000  O
  O273     1.0000 0.60788  0.22073  0.23227  Biso   1.000  O
  O274     1.0000 0.55801  0.24188  0.25342  Biso   1.000  O
  O275     1.0000 0.47000  0.28163  0.29317  Biso   1.000  O
  O276     1.0000 0.42456  0.30239  0.31393  Biso   1.000  O
  O277     1.0000 0.70044  0.22073  0.23227  Biso   1.000  O
  O278     1.0000 0.70801  0.24188  0.25342  Biso   1.000  O
  O279     1.0000 0.71652  0.28163  0.29317  Biso   1.000  O
  O280     1.0000 0.72044  0.30239  0.31393  Biso   1.000  O
  O281     1.0000 0.22088  0.60773  0.71183  Biso   1.000  O
  O282     1.0000 0.24203  0.55786  0.71940  Biso   1.000  O
  O283     1.0000 0.28178  0.46985  0.72791  Biso   1.000  O
  O284     1.0000 0.30254  0.42441  0.73183  Biso   1.000  O
  O285     1.0000 0.60788  0.70029  0.23227  Biso   1.000  O
  O286     1.0000 0.55801  0.70786  0.25342  Biso   1.000  O
  O287     1.0000 0.47000  0.71637  0.29317  Biso   1.000  O
  O288     1.0000 0.42456  0.72029  0.31393  Biso   1.000  O
  O289     1.0000 0.22088  0.22073  0.71183  Biso   1.000  O
  O290     1.0000 0.24203  0.24188  0.71940  Biso   1.000  O
  O291     1.0000 0.28178  0.28163  0.72791  Biso   1.000  O
  O292     1.0000 0.30254  0.30239  0.73183  Biso   1.000  O
  O293     1.0000 0.22088  0.22073  0.61927  Biso   1.000  O
  O294     1.0000 0.24203  0.24188  0.56940  Biso   1.000  O
  O295     1.0000 0.28178  0.28163  0.48139  Biso   1.000  O
  O296     1.0000 0.30254  0.30239  0.43595  Biso   1.000  O
  O297     1.0000 0.70044  0.60773  0.23227  Biso   1.000  O
  O298     1.0000 0.70801  0.55786  0.25342  Biso   1.000  O
  O299     1.0000 0.71652  0.46985  0.29317  Biso   1.000  O
  O300     1.0000 0.72044  0.42441  0.31393  Biso   1.000  O
  O301     1.0000 0.65383  0.01044  0.08646  Biso   1.000  O
  O302     1.0000 0.01059  0.65368  0.02198  Biso   1.000  O
  O303     1.0000 0.07507  0.01044  0.66522  Biso   1.000  O
  O304     1.0000 0.01059  0.07492  0.02198  Biso   1.000  O
  O305     1.0000 0.65383  0.07492  0.02198  Biso   1.000  O
  O306     1.0000 0.01059  0.01044  0.08646  Biso   1.000  O
  O307     1.0000 0.07507  0.65368  0.02198  Biso   1.000  O
  O308     1.0000 0.01059  0.01044  0.66522  Biso   1.000  O
  O309     1.0000 0.65383  0.01044  0.02198  Biso   1.000  O
  O310     1.0000 0.01059  0.07492  0.66522  Biso   1.000  O
  O311     1.0000 0.07507  0.01044  0.02198  Biso   1.000  O
  O312     1.0000 0.01059  0.65368  0.08646  Biso   1.000  O
  O313     1.0000 0.36445  0.72106  0.31136  Biso   1.000  O
  O314     1.0000 0.72121  0.36430  0.37584  Biso   1.000  O
  O315     1.0000 0.36445  0.29982  0.73260  Biso   1.000  O
  O316     1.0000 0.29997  0.36430  0.37584  Biso   1.000  O
  O317     1.0000 0.29997  0.72106  0.37584  Biso   1.000  O
  O318     1.0000 0.36445  0.36430  0.31136  Biso   1.000  O
  O319     1.0000 0.72121  0.29982  0.37584  Biso   1.000  O
  O320     1.0000 0.36445  0.36430  0.73260  Biso   1.000  O
  O321     1.0000 0.36445  0.72106  0.37584  Biso   1.000  O
  O322     1.0000 0.29997  0.36430  0.73260  Biso   1.000  O
  O323     1.0000 0.36445  0.29982  0.37584  Biso   1.000  O
  O324     1.0000 0.72121  0.36430  0.31136  Biso   1.000  O
  O325     1.0000 0.65493  0.03074  0.10634  Biso   1.000  O
  O326     1.0000 0.03089  0.65478  0.98070  Biso   1.000  O
  O327     1.0000 0.09495  0.96916  0.66632  Biso   1.000  O
  O328     1.0000 0.96931  0.09480  0.04228  Biso   1.000  O
  O329     1.0000 0.65493  0.09480  0.98070  Biso   1.000  O
  O330     1.0000 0.03089  0.96916  0.10634  Biso   1.000  O
  O331     1.0000 0.09495  0.65478  0.04228  Biso   1.000  O
  O332     1.0000 0.96931  0.03074  0.66632  Biso   1.000  O
  O333     1.0000 0.65493  0.96916  0.04228  Biso   1.000  O
  O334     1.0000 0.03089  0.09480  0.66632  Biso   1.000  O
  O335     1.0000 0.09495  0.03074  0.98070  Biso   1.000  O
  O336     1.0000 0.96931  0.65478  0.10634  Biso   1.000  O
  O337     1.0000 0.34415  0.71996  0.29148  Biso   1.000  O
  O338     1.0000 0.72011  0.34400  0.41712  Biso   1.000  O
  O339     1.0000 0.40573  0.27994  0.73150  Biso   1.000  O
  O340     1.0000 0.28009  0.40558  0.35554  Biso   1.000  O
  O341     1.0000 0.28009  0.71996  0.41712  Biso   1.000  O
  O342     1.0000 0.40573  0.34400  0.29148  Biso   1.000  O
  O343     1.0000 0.72011  0.27994  0.35554  Biso   1.000  O
  O344     1.0000 0.34415  0.40558  0.73150  Biso   1.000  O
  O345     1.0000 0.40573  0.71996  0.35554  Biso   1.000  O
  O346     1.0000 0.28009  0.34400  0.73150  Biso   1.000  O
  O347     1.0000 0.34415  0.27994  0.41712  Biso   1.000  O
  O348     1.0000 0.72011  0.40558  0.29148  Biso   1.000  O
  O349     1.0000 0.72011  0.34400  0.29148  Biso   1.000  O
  O350     1.0000 0.34415  0.71996  0.41712  Biso   1.000  O
  O351     1.0000 0.28009  0.40558  0.73150  Biso   1.000  O
  O352     1.0000 0.40573  0.27994  0.35554  Biso   1.000  O
  O353     1.0000 0.72011  0.27994  0.41712  Biso   1.000  O
  O354     1.0000 0.34415  0.40558  0.29148  Biso   1.000  O
  O355     1.0000 0.28009  0.71996  0.35554  Biso   1.000  O
  O356     1.0000 0.40573  0.34400  0.73150  Biso   1.000  O
  O357     1.0000 0.72011  0.40558  0.35554  Biso   1.000  O
  O358     1.0000 0.34415  0.27994  0.73150  Biso   1.000  O
  O359     1.0000 0.28009  0.34400  0.41712  Biso   1.000  O
  O360     1.0000 0.40573  0.71996  0.29148  Biso   1.000  O
  O361     1.0000 0.03089  0.65478  0.10634  Biso   1.000  O
  O362     1.0000 0.65493  0.03074  0.98070  Biso   1.000  O
  O363     1.0000 0.96931  0.09480  0.66632  Biso   1.000  O
  O364     1.0000 0.09495  0.96916  0.04228  Biso   1.000  O
  O365     1.0000 0.09495  0.65478  0.98070  Biso   1.000  O
  O366     1.0000 0.96931  0.03074  0.10634  Biso   1.000  O
  O367     1.0000 0.65493  0.09480  0.04228  Biso   1.000  O
  O368     1.0000 0.03089  0.96916  0.66632  Biso   1.000  O
  O369     1.0000 0.96931  0.65478  0.04228  Biso   1.000  O
  O370     1.0000 0.09495  0.03074  0.66632  Biso   1.000  O
  O371     1.0000 0.03089  0.09480  0.98070  Biso   1.000  O
  O372     1.0000 0.65493  0.96916  0.10634  Biso   1.000  O
  O373     1.0000 0.65318  0.03215  0.04369  Biso   1.000  O
  O374     1.0000 0.03230  0.65303  0.04369  Biso   1.000  O
  O375     1.0000 0.03230  0.03215  0.66457  Biso   1.000  O
  O376     1.0000 0.03230  0.03215  0.04369  Biso   1.000  O
  O377     1.0000 0.34274  0.72171  0.35413  Biso   1.000  O
  O378     1.0000 0.72186  0.34259  0.35413  Biso   1.000  O
  O379     1.0000 0.34274  0.34259  0.73325  Biso   1.000  O
  O380     1.0000 0.34274  0.34259  0.35413  Biso   1.000  O
  O381     1.0000 0.67635  0.19096  0.14329  Biso   1.000  O
  O382     1.0000 0.19111  0.67620  0.76211  Biso   1.000  O
  O383     1.0000 0.13190  0.75057  0.68774  Biso   1.000  O
  O384     1.0000 0.75072  0.13175  0.20250  Biso   1.000  O
  O385     1.0000 0.67635  0.13175  0.76211  Biso   1.000  O
  O386     1.0000 0.19111  0.75057  0.14329  Biso   1.000  O
  O387     1.0000 0.13190  0.67620  0.20250  Biso   1.000  O
  O388     1.0000 0.75072  0.19096  0.68774  Biso   1.000  O
  O389     1.0000 0.67635  0.75057  0.20250  Biso   1.000  O
  O390     1.0000 0.19111  0.13175  0.68774  Biso   1.000  O
  O391     1.0000 0.13190  0.19096  0.76211  Biso   1.000  O
  O392     1.0000 0.75072  0.67620  0.14329  Biso   1.000  O
  O393     1.0000 0.18393  0.69854  0.25453  Biso   1.000  O
  O394     1.0000 0.69869  0.18378  0.63571  Biso   1.000  O
  O395     1.0000 0.62432  0.24299  0.71008  Biso   1.000  O
  O396     1.0000 0.24314  0.62417  0.19532  Biso   1.000  O
  O397     1.0000 0.24314  0.69854  0.63571  Biso   1.000  O
  O398     1.0000 0.62432  0.18378  0.25453  Biso   1.000  O
  O399     1.0000 0.69869  0.24299  0.19532  Biso   1.000  O
  O400     1.0000 0.18393  0.62417  0.71008  Biso   1.000  O
  O401     1.0000 0.62432  0.69854  0.19532  Biso   1.000  O
  O402     1.0000 0.24314  0.18378  0.71008  Biso   1.000  O
  O403     1.0000 0.18393  0.24299  0.63571  Biso   1.000  O
  O404     1.0000 0.69869  0.62417  0.25453  Biso   1.000  O
  O405     1.0000 0.69869  0.18378  0.25453  Biso   1.000  O
  O406     1.0000 0.18393  0.69854  0.63571  Biso   1.000  O
  O407     1.0000 0.24314  0.62417  0.71008  Biso   1.000  O
  O408     1.0000 0.62432  0.24299  0.19532  Biso   1.000  O
  O409     1.0000 0.69869  0.24299  0.63571  Biso   1.000  O
  O410     1.0000 0.18393  0.62417  0.25453  Biso   1.000  O
  O411     1.0000 0.24314  0.69854  0.19532  Biso   1.000  O
  O412     1.0000 0.62432  0.18378  0.71008  Biso   1.000  O
  O413     1.0000 0.69869  0.62417  0.19532  Biso   1.000  O
  O414     1.0000 0.18393  0.24299  0.71008  Biso   1.000  O
  O415     1.0000 0.24314  0.18378  0.63571  Biso   1.000  O
  O416     1.0000 0.62432  0.69854  0.25453  Biso   1.000  O
  O417     1.0000 0.19111  0.67620  0.14329  Biso   1.000  O
  O418     1.0000 0.67635  0.19096  0.76211  Biso   1.000  O
  O419     1.0000 0.75072  0.13175  0.68774  Biso   1.000  O
  O420     1.0000 0.13190  0.75057  0.20250  Biso   1.000  O
  O421     1.0000 0.13190  0.67620  0.76211  Biso   1.000  O
  O422     1.0000 0.75072  0.19096  0.14329  Biso   1.000  O
  O423     1.0000 0.67635  0.13175  0.20250  Biso   1.000  O
  O424     1.0000 0.19111  0.75057  0.68774  Biso   1.000  O
  O425     1.0000 0.75072  0.67620  0.20250  Biso   1.000  O
  O426     1.0000 0.13190  0.19096  0.68774  Biso   1.000  O
  O427     1.0000 0.19111  0.13175  0.76211  Biso   1.000  O
