data_image0
_cell_length_a       25.654
_cell_length_b       25.654
_cell_length_c       25.654
_cell_angle_alpha    90
_cell_angle_beta     90
_cell_angle_gamma    90

_symmetry_space_group_name_H-M    "P 1"
_symmetry_int_tables_number       1

loop_
  _symmetry_equiv_pos_as_xyz
  'x, y, z'

loop_
  _atom_site_label
  _atom_site_occupancy
  _atom_site_fract_x
  _atom_site_fract_y
  _atom_site_fract_z
  _atom_site_thermal_displace_type
  _atom_site_B_iso_or_equiv
  _atom_site_type_symbol
  O1       1.0000 0.21460  0.13340  0.21460  Biso   1.000  O
  C1       1.0000 0.21890  0.02300  0.21890  Biso   1.000  C
  O2       1.0000 0.21460  0.63340  0.71460  Biso   1.000  O
  C2       1.0000 0.21890  0.52300  0.71890  Biso   1.000  C
  O3       1.0000 0.71460  0.13340  0.71460  Biso   1.000  O
  C3       1.0000 0.71890  0.02300  0.71890  Biso   1.000  C
  O4       1.0000 0.71460  0.63340  0.21460  Biso   1.000  O
  C4       1.0000 0.71890  0.52300  0.21890  Biso   1.000  C
  O5       1.0000 0.78540  0.86660  0.21460  Biso   1.000  O
  C5       1.0000 0.78110  0.97700  0.21890  Biso   1.000  C
  O6       1.0000 0.78540  0.36660  0.71460  Biso   1.000  O
  C6       1.0000 0.78110  0.47700  0.71890  Biso   1.000  C
  O7       1.0000 0.28540  0.86660  0.71460  Biso   1.000  O
  C7       1.0000 0.28110  0.97700  0.71890  Biso   1.000  C
  O8       1.0000 0.28540  0.36660  0.21460  Biso   1.000  O
  C8       1.0000 0.28110  0.47700  0.21890  Biso   1.000  C
  O9       1.0000 0.78540  0.13340  0.78540  Biso   1.000  O
  C9       1.0000 0.78110  0.02300  0.78110  Biso   1.000  C
  O10      1.0000 0.78540  0.63340  0.28540  Biso   1.000  O
  C10      1.0000 0.78110  0.52300  0.28110  Biso   1.000  C
  O11      1.0000 0.28540  0.13340  0.28540  Biso   1.000  O
  C11      1.0000 0.28110  0.02300  0.28110  Biso   1.000  C
  O12      1.0000 0.28540  0.63340  0.78540  Biso   1.000  O
  C12      1.0000 0.28110  0.52300  0.78110  Biso   1.000  C
  O13      1.0000 0.21460  0.86660  0.78540  Biso   1.000  O
  C13      1.0000 0.21890  0.97700  0.78110  Biso   1.000  C
  O14      1.0000 0.21460  0.36660  0.28540  Biso   1.000  O
  C14      1.0000 0.21890  0.47700  0.28110  Biso   1.000  C
  O15      1.0000 0.71460  0.86660  0.28540  Biso   1.000  O
  C15      1.0000 0.71890  0.97700  0.28110  Biso   1.000  C
  O16      1.0000 0.71460  0.36660  0.78540  Biso   1.000  O
  C16      1.0000 0.71890  0.47700  0.78110  Biso   1.000  C
  O17      1.0000 0.21460  0.21460  0.13340  Biso   1.000  O
  C17      1.0000 0.21890  0.21890  0.02300  Biso   1.000  C
  O18      1.0000 0.21460  0.71460  0.63340  Biso   1.000  O
  C18      1.0000 0.21890  0.71890  0.52300  Biso   1.000  C
  O19      1.0000 0.71460  0.21460  0.63340  Biso   1.000  O
  C19      1.0000 0.71890  0.21890  0.52300  Biso   1.000  C
  O20      1.0000 0.71460  0.71460  0.13340  Biso   1.000  O
  C20      1.0000 0.71890  0.71890  0.02300  Biso   1.000  C
  O21      1.0000 0.21460  0.78540  0.86660  Biso   1.000  O
  C21      1.0000 0.21890  0.78110  0.97700  Biso   1.000  C
  O22      1.0000 0.21460  0.28540  0.36660  Biso   1.000  O
  C22      1.0000 0.21890  0.28110  0.47700  Biso   1.000  C
  O23      1.0000 0.71460  0.78540  0.36660  Biso   1.000  O
  C23      1.0000 0.71890  0.78110  0.47700  Biso   1.000  C
  O24      1.0000 0.71460  0.28540  0.86660  Biso   1.000  O
  C24      1.0000 0.71890  0.28110  0.97700  Biso   1.000  C
  O25      1.0000 0.78540  0.78540  0.13340  Biso   1.000  O
  C25      1.0000 0.78110  0.78110  0.02300  Biso   1.000  C
  O26      1.0000 0.78540  0.28540  0.63340  Biso   1.000  O
  C26      1.0000 0.78110  0.28110  0.52300  Biso   1.000  C
  O27      1.0000 0.28540  0.78540  0.63340  Biso   1.000  O
  C27      1.0000 0.28110  0.78110  0.52300  Biso   1.000  C
  O28      1.0000 0.28540  0.28540  0.13340  Biso   1.000  O
  C28      1.0000 0.28110  0.28110  0.02300  Biso   1.000  C
  O29      1.0000 0.78540  0.21460  0.86660  Biso   1.000  O
  C29      1.0000 0.78110  0.21890  0.97700  Biso   1.000  C
  O30      1.0000 0.78540  0.71460  0.36660  Biso   1.000  O
  C30      1.0000 0.78110  0.71890  0.47700  Biso   1.000  C
  O31      1.0000 0.28540  0.21460  0.36660  Biso   1.000  O
  C31      1.0000 0.28110  0.21890  0.47700  Biso   1.000  C
  O32      1.0000 0.28540  0.71460  0.86660  Biso   1.000  O
  C32      1.0000 0.28110  0.71890  0.97700  Biso   1.000  C
  O33      1.0000 0.13340  0.21460  0.21460  Biso   1.000  O
  C33      1.0000 0.02300  0.21890  0.21890  Biso   1.000  C
  O34      1.0000 0.13340  0.71460  0.71460  Biso   1.000  O
  C34      1.0000 0.02300  0.71890  0.71890  Biso   1.000  C
  O35      1.0000 0.63340  0.21460  0.71460  Biso   1.000  O
  C35      1.0000 0.52300  0.21890  0.71890  Biso   1.000  C
  O36      1.0000 0.63340  0.71460  0.21460  Biso   1.000  O
  C36      1.0000 0.52300  0.71890  0.21890  Biso   1.000  C
  O37      1.0000 0.86660  0.21460  0.78540  Biso   1.000  O
  C37      1.0000 0.97700  0.21890  0.78110  Biso   1.000  C
  O38      1.0000 0.86660  0.71460  0.28540  Biso   1.000  O
  C38      1.0000 0.97700  0.71890  0.28110  Biso   1.000  C
  O39      1.0000 0.36660  0.21460  0.28540  Biso   1.000  O
  C39      1.0000 0.47700  0.21890  0.28110  Biso   1.000  C
  O40      1.0000 0.36660  0.71460  0.78540  Biso   1.000  O
  C40      1.0000 0.47700  0.71890  0.78110  Biso   1.000  C
  O41      1.0000 0.13340  0.78540  0.78540  Biso   1.000  O
  C41      1.0000 0.02300  0.78110  0.78110  Biso   1.000  C
  O42      1.0000 0.13340  0.28540  0.28540  Biso   1.000  O
  C42      1.0000 0.02300  0.28110  0.28110  Biso   1.000  C
  O43      1.0000 0.63340  0.78540  0.28540  Biso   1.000  O
  C43      1.0000 0.52300  0.78110  0.28110  Biso   1.000  C
  O44      1.0000 0.63340  0.28540  0.78540  Biso   1.000  O
  C44      1.0000 0.52300  0.28110  0.78110  Biso   1.000  C
  O45      1.0000 0.86660  0.78540  0.21460  Biso   1.000  O
  C45      1.0000 0.97700  0.78110  0.21890  Biso   1.000  C
  O46      1.0000 0.86660  0.28540  0.71460  Biso   1.000  O
  C46      1.0000 0.97700  0.28110  0.71890  Biso   1.000  C
  O47      1.0000 0.36660  0.78540  0.71460  Biso   1.000  O
  C47      1.0000 0.47700  0.78110  0.71890  Biso   1.000  C
  O48      1.0000 0.36660  0.28540  0.21460  Biso   1.000  O
  C48      1.0000 0.47700  0.28110  0.21890  Biso   1.000  C
  O49      1.0000 0.13340  0.21460  0.78540  Biso   1.000  O
  C49      1.0000 0.02300  0.21890  0.78110  Biso   1.000  C
  O50      1.0000 0.13340  0.71460  0.28540  Biso   1.000  O
  C50      1.0000 0.02300  0.71890  0.28110  Biso   1.000  C
  O51      1.0000 0.63340  0.21460  0.28540  Biso   1.000  O
  C51      1.0000 0.52300  0.21890  0.28110  Biso   1.000  C
  O52      1.0000 0.63340  0.71460  0.78540  Biso   1.000  O
  C52      1.0000 0.52300  0.71890  0.78110  Biso   1.000  C
  O53      1.0000 0.86660  0.78540  0.78540  Biso   1.000  O
  C53      1.0000 0.97700  0.78110  0.78110  Biso   1.000  C
  O54      1.0000 0.86660  0.28540  0.28540  Biso   1.000  O
  C54      1.0000 0.97700  0.28110  0.28110  Biso   1.000  C
  O55      1.0000 0.36660  0.78540  0.28540  Biso   1.000  O
  C55      1.0000 0.47700  0.78110  0.28110  Biso   1.000  C
  O56      1.0000 0.36660  0.28540  0.78540  Biso   1.000  O
  C56      1.0000 0.47700  0.28110  0.78110  Biso   1.000  C
  O57      1.0000 0.13340  0.78540  0.21460  Biso   1.000  O
  C57      1.0000 0.02300  0.78110  0.21890  Biso   1.000  C
  O58      1.0000 0.13340  0.28540  0.71460  Biso   1.000  O
  C58      1.0000 0.02300  0.28110  0.71890  Biso   1.000  C
  O59      1.0000 0.63340  0.78540  0.71460  Biso   1.000  O
  C59      1.0000 0.52300  0.78110  0.71890  Biso   1.000  C
  O60      1.0000 0.63340  0.28540  0.21460  Biso   1.000  O
  C60      1.0000 0.52300  0.28110  0.21890  Biso   1.000  C
  O61      1.0000 0.86660  0.21460  0.21460  Biso   1.000  O
  C61      1.0000 0.97700  0.21890  0.21890  Biso   1.000  C
  O62      1.0000 0.86660  0.71460  0.71460  Biso   1.000  O
  C62      1.0000 0.97700  0.71890  0.71890  Biso   1.000  C
  O63      1.0000 0.36660  0.21460  0.71460  Biso   1.000  O
  C63      1.0000 0.47700  0.21890  0.71890  Biso   1.000  C
  O64      1.0000 0.36660  0.71460  0.21460  Biso   1.000  O
  C64      1.0000 0.47700  0.71890  0.21890  Biso   1.000  C
  O65      1.0000 0.21460  0.21460  0.86660  Biso   1.000  O
  C65      1.0000 0.21890  0.21890  0.97700  Biso   1.000  C
  O66      1.0000 0.21460  0.71460  0.36660  Biso   1.000  O
  C66      1.0000 0.21890  0.71890  0.47700  Biso   1.000  C
  O67      1.0000 0.71460  0.21460  0.36660  Biso   1.000  O
  C67      1.0000 0.71890  0.21890  0.47700  Biso   1.000  C
  O68      1.0000 0.71460  0.71460  0.86660  Biso   1.000  O
  C68      1.0000 0.71890  0.71890  0.97700  Biso   1.000  C
  O69      1.0000 0.78540  0.21460  0.13340  Biso   1.000  O
  C69      1.0000 0.78110  0.21890  0.02300  Biso   1.000  C
  O70      1.0000 0.78540  0.71460  0.63340  Biso   1.000  O
  C70      1.0000 0.78110  0.71890  0.52300  Biso   1.000  C
  O71      1.0000 0.28540  0.21460  0.63340  Biso   1.000  O
  C71      1.0000 0.28110  0.21890  0.52300  Biso   1.000  C
  O72      1.0000 0.28540  0.71460  0.13340  Biso   1.000  O
  C72      1.0000 0.28110  0.71890  0.02300  Biso   1.000  C
  O73      1.0000 0.78540  0.78540  0.86660  Biso   1.000  O
  C73      1.0000 0.78110  0.78110  0.97700  Biso   1.000  C
  O74      1.0000 0.78540  0.28540  0.36660  Biso   1.000  O
  C74      1.0000 0.78110  0.28110  0.47700  Biso   1.000  C
  O75      1.0000 0.28540  0.78540  0.36660  Biso   1.000  O
  C75      1.0000 0.28110  0.78110  0.47700  Biso   1.000  C
  O76      1.0000 0.28540  0.28540  0.86660  Biso   1.000  O
  C76      1.0000 0.28110  0.28110  0.97700  Biso   1.000  C
  O77      1.0000 0.21460  0.78540  0.13340  Biso   1.000  O
  C77      1.0000 0.21890  0.78110  0.02300  Biso   1.000  C
  O78      1.0000 0.21460  0.28540  0.63340  Biso   1.000  O
  C78      1.0000 0.21890  0.28110  0.52300  Biso   1.000  C
  O79      1.0000 0.71460  0.78540  0.63340  Biso   1.000  O
  C79      1.0000 0.71890  0.78110  0.52300  Biso   1.000  C
  O80      1.0000 0.71460  0.28540  0.13340  Biso   1.000  O
  C80      1.0000 0.71890  0.28110  0.02300  Biso   1.000  C
  O81      1.0000 0.21460  0.13340  0.78540  Biso   1.000  O
  C81      1.0000 0.21890  0.02300  0.78110  Biso   1.000  C
  O82      1.0000 0.21460  0.63340  0.28540  Biso   1.000  O
  C82      1.0000 0.21890  0.52300  0.28110  Biso   1.000  C
  O83      1.0000 0.71460  0.13340  0.28540  Biso   1.000  O
  C83      1.0000 0.71890  0.02300  0.28110  Biso   1.000  C
  O84      1.0000 0.71460  0.63340  0.78540  Biso   1.000  O
  C84      1.0000 0.71890  0.52300  0.78110  Biso   1.000  C
  O85      1.0000 0.21460  0.86660  0.21460  Biso   1.000  O
  C85      1.0000 0.21890  0.97700  0.21890  Biso   1.000  C
  O86      1.0000 0.21460  0.36660  0.71460  Biso   1.000  O
  C86      1.0000 0.21890  0.47700  0.71890  Biso   1.000  C
  O87      1.0000 0.71460  0.86660  0.71460  Biso   1.000  O
  C87      1.0000 0.71890  0.97700  0.71890  Biso   1.000  C
  O88      1.0000 0.71460  0.36660  0.21460  Biso   1.000  O
  C88      1.0000 0.71890  0.47700  0.21890  Biso   1.000  C
  O89      1.0000 0.78540  0.13340  0.21460  Biso   1.000  O
  C89      1.0000 0.78110  0.02300  0.21890  Biso   1.000  C
  O90      1.0000 0.78540  0.63340  0.71460  Biso   1.000  O
  C90      1.0000 0.78110  0.52300  0.71890  Biso   1.000  C
  O91      1.0000 0.28540  0.13340  0.71460  Biso   1.000  O
  C91      1.0000 0.28110  0.02300  0.71890  Biso   1.000  C
  O92      1.0000 0.28540  0.63340  0.21460  Biso   1.000  O
  C92      1.0000 0.28110  0.52300  0.21890  Biso   1.000  C
  O93      1.0000 0.78540  0.86660  0.78540  Biso   1.000  O
  C93      1.0000 0.78110  0.97700  0.78110  Biso   1.000  C
  O94      1.0000 0.78540  0.36660  0.28540  Biso   1.000  O
  C94      1.0000 0.78110  0.47700  0.28110  Biso   1.000  C
  O95      1.0000 0.28540  0.86660  0.28540  Biso   1.000  O
  C95      1.0000 0.28110  0.97700  0.28110  Biso   1.000  C
  O96      1.0000 0.28540  0.36660  0.78540  Biso   1.000  O
  C96      1.0000 0.28110  0.47700  0.78110  Biso   1.000  C
  O97      1.0000 0.25000  0.25000  0.25000  Biso   1.000  O
  O98      1.0000 0.75000  0.75000  0.25000  Biso   1.000  O
  O99      1.0000 0.75000  0.25000  0.75000  Biso   1.000  O
  O100     1.0000 0.25000  0.75000  0.75000  Biso   1.000  O
  O101     1.0000 0.25000  0.25000  0.75000  Biso   1.000  O
  O102     1.0000 0.75000  0.75000  0.75000  Biso   1.000  O
  O103     1.0000 0.75000  0.25000  0.25000  Biso   1.000  O
  O104     1.0000 0.25000  0.75000  0.25000  Biso   1.000  O
  C97      1.0000 0.25000  0.11520  0.25000  Biso   1.000  C
  C98      1.0000 0.25000  0.05620  0.25000  Biso   1.000  C
  C99      1.0000 0.25000  0.61520  0.75000  Biso   1.000  C
  C100     1.0000 0.25000  0.55620  0.75000  Biso   1.000  C
  C101     1.0000 0.75000  0.88480  0.25000  Biso   1.000  C
  C102     1.0000 0.75000  0.94380  0.25000  Biso   1.000  C
  C103     1.0000 0.75000  0.38480  0.75000  Biso   1.000  C
  C104     1.0000 0.75000  0.44380  0.75000  Biso   1.000  C
  C105     1.0000 0.25000  0.38480  0.25000  Biso   1.000  C
  C106     1.0000 0.25000  0.44380  0.25000  Biso   1.000  C
  C107     1.0000 0.75000  0.11520  0.75000  Biso   1.000  C
  C108     1.0000 0.75000  0.05620  0.75000  Biso   1.000  C
  C109     1.0000 0.75000  0.61520  0.25000  Biso   1.000  C
  C110     1.0000 0.75000  0.55620  0.25000  Biso   1.000  C
  C111     1.0000 0.25000  0.88480  0.75000  Biso   1.000  C
  C112     1.0000 0.25000  0.94380  0.75000  Biso   1.000  C
  C113     1.0000 0.25000  0.25000  0.11520  Biso   1.000  C
  C114     1.0000 0.25000  0.25000  0.05620  Biso   1.000  C
  C115     1.0000 0.25000  0.75000  0.61520  Biso   1.000  C
  C116     1.0000 0.25000  0.75000  0.55620  Biso   1.000  C
  C117     1.0000 0.25000  0.75000  0.88480  Biso   1.000  C
  C118     1.0000 0.25000  0.75000  0.94380  Biso   1.000  C
  C119     1.0000 0.25000  0.25000  0.38480  Biso   1.000  C
  C120     1.0000 0.25000  0.25000  0.44380  Biso   1.000  C
  C121     1.0000 0.75000  0.75000  0.11520  Biso   1.000  C
  C122     1.0000 0.75000  0.75000  0.05620  Biso   1.000  C
  C123     1.0000 0.75000  0.25000  0.61520  Biso   1.000  C
  C124     1.0000 0.75000  0.25000  0.55620  Biso   1.000  C
  C125     1.0000 0.75000  0.25000  0.88480  Biso   1.000  C
  C126     1.0000 0.75000  0.25000  0.94380  Biso   1.000  C
  C127     1.0000 0.75000  0.75000  0.38480  Biso   1.000  C
  C128     1.0000 0.75000  0.75000  0.44380  Biso   1.000  C
  C129     1.0000 0.11520  0.25000  0.25000  Biso   1.000  C
  C130     1.0000 0.05620  0.25000  0.25000  Biso   1.000  C
  C131     1.0000 0.61520  0.25000  0.75000  Biso   1.000  C
  C132     1.0000 0.55620  0.25000  0.75000  Biso   1.000  C
  C133     1.0000 0.88480  0.25000  0.75000  Biso   1.000  C
  C134     1.0000 0.94380  0.25000  0.75000  Biso   1.000  C
  C135     1.0000 0.38480  0.25000  0.25000  Biso   1.000  C
  C136     1.0000 0.44380  0.25000  0.25000  Biso   1.000  C
  C137     1.0000 0.11520  0.75000  0.75000  Biso   1.000  C
  C138     1.0000 0.05620  0.75000  0.75000  Biso   1.000  C
  C139     1.0000 0.61520  0.75000  0.25000  Biso   1.000  C
  C140     1.0000 0.55620  0.75000  0.25000  Biso   1.000  C
  C141     1.0000 0.88480  0.75000  0.25000  Biso   1.000  C
  C142     1.0000 0.94380  0.75000  0.25000  Biso   1.000  C
  C143     1.0000 0.38480  0.75000  0.75000  Biso   1.000  C
  C144     1.0000 0.44380  0.75000  0.75000  Biso   1.000  C
  C145     1.0000 0.11520  0.25000  0.75000  Biso   1.000  C
  C146     1.0000 0.05620  0.25000  0.75000  Biso   1.000  C
  C147     1.0000 0.61520  0.25000  0.25000  Biso   1.000  C
  C148     1.0000 0.55620  0.25000  0.25000  Biso   1.000  C
  C149     1.0000 0.88480  0.75000  0.75000  Biso   1.000  C
  C150     1.0000 0.94380  0.75000  0.75000  Biso   1.000  C
  C151     1.0000 0.88480  0.25000  0.25000  Biso   1.000  C
  C152     1.0000 0.94380  0.25000  0.25000  Biso   1.000  C
  C153     1.0000 0.38480  0.75000  0.25000  Biso   1.000  C
  C154     1.0000 0.44380  0.75000  0.25000  Biso   1.000  C
  C155     1.0000 0.11520  0.75000  0.25000  Biso   1.000  C
  C156     1.0000 0.05620  0.75000  0.25000  Biso   1.000  C
  C157     1.0000 0.61520  0.75000  0.75000  Biso   1.000  C
  C158     1.0000 0.55620  0.75000  0.75000  Biso   1.000  C
  C159     1.0000 0.38480  0.25000  0.75000  Biso   1.000  C
  C160     1.0000 0.44380  0.25000  0.75000  Biso   1.000  C
  C161     1.0000 0.25000  0.25000  0.88480  Biso   1.000  C
  C162     1.0000 0.25000  0.25000  0.94380  Biso   1.000  C
  C163     1.0000 0.25000  0.75000  0.38480  Biso   1.000  C
  C164     1.0000 0.25000  0.75000  0.44380  Biso   1.000  C
  C165     1.0000 0.75000  0.25000  0.11520  Biso   1.000  C
  C166     1.0000 0.75000  0.25000  0.05620  Biso   1.000  C
  C167     1.0000 0.75000  0.75000  0.61520  Biso   1.000  C
  C168     1.0000 0.75000  0.75000  0.55620  Biso   1.000  C
  C169     1.0000 0.25000  0.25000  0.61520  Biso   1.000  C
  C170     1.0000 0.25000  0.25000  0.55620  Biso   1.000  C
  C171     1.0000 0.75000  0.75000  0.88480  Biso   1.000  C
  C172     1.0000 0.75000  0.75000  0.94380  Biso   1.000  C
  C173     1.0000 0.75000  0.25000  0.38480  Biso   1.000  C
  C174     1.0000 0.75000  0.25000  0.44380  Biso   1.000  C
  C175     1.0000 0.25000  0.75000  0.11520  Biso   1.000  C
  C176     1.0000 0.25000  0.75000  0.05620  Biso   1.000  C
  C177     1.0000 0.25000  0.11520  0.75000  Biso   1.000  C
  C178     1.0000 0.25000  0.05620  0.75000  Biso   1.000  C
  C179     1.0000 0.25000  0.61520  0.25000  Biso   1.000  C
  C180     1.0000 0.25000  0.55620  0.25000  Biso   1.000  C
  C181     1.0000 0.25000  0.88480  0.25000  Biso   1.000  C
  C182     1.0000 0.25000  0.94380  0.25000  Biso   1.000  C
  C183     1.0000 0.25000  0.38480  0.75000  Biso   1.000  C
  C184     1.0000 0.25000  0.44380  0.75000  Biso   1.000  C
  C185     1.0000 0.75000  0.11520  0.25000  Biso   1.000  C
  C186     1.0000 0.75000  0.05620  0.25000  Biso   1.000  C
  C187     1.0000 0.75000  0.61520  0.75000  Biso   1.000  C
  C188     1.0000 0.75000  0.55620  0.75000  Biso   1.000  C
  C189     1.0000 0.75000  0.88480  0.75000  Biso   1.000  C
  C190     1.0000 0.75000  0.94380  0.75000  Biso   1.000  C
  C191     1.0000 0.75000  0.38480  0.25000  Biso   1.000  C
  C192     1.0000 0.75000  0.44380  0.25000  Biso   1.000  C
  Zn1      1.0000 0.20639  0.20639  0.20639  Biso   1.000  Zn
  Zn2      1.0000 0.20639  0.70639  0.70639  Biso   1.000  Zn
  Zn3      1.0000 0.70639  0.20639  0.70639  Biso   1.000  Zn
  Zn4      1.0000 0.70639  0.70639  0.20639  Biso   1.000  Zn
  Zn5      1.0000 0.79361  0.79361  0.20639  Biso   1.000  Zn
  Zn6      1.0000 0.79361  0.29361  0.70639  Biso   1.000  Zn
  Zn7      1.0000 0.29361  0.79361  0.70639  Biso   1.000  Zn
  Zn8      1.0000 0.29361  0.29361  0.20639  Biso   1.000  Zn
  Zn9      1.0000 0.79361  0.20639  0.79361  Biso   1.000  Zn
  Zn10     1.0000 0.79361  0.70639  0.29361  Biso   1.000  Zn
  Zn11     1.0000 0.29361  0.20639  0.29361  Biso   1.000  Zn
  Zn12     1.0000 0.29361  0.70639  0.79361  Biso   1.000  Zn
  Zn13     1.0000 0.20639  0.79361  0.79361  Biso   1.000  Zn
  Zn14     1.0000 0.20639  0.29361  0.29361  Biso   1.000  Zn
  Zn15     1.0000 0.70639  0.79361  0.29361  Biso   1.000  Zn
  Zn16     1.0000 0.70639  0.29361  0.79361  Biso   1.000  Zn
  Zn17     1.0000 0.20639  0.20639  0.79361  Biso   1.000  Zn
  Zn18     1.0000 0.20639  0.70639  0.29361  Biso   1.000  Zn
  Zn19     1.0000 0.70639  0.20639  0.29361  Biso   1.000  Zn
  Zn20     1.0000 0.70639  0.70639  0.79361  Biso   1.000  Zn
  Zn21     1.0000 0.79361  0.79361  0.79361  Biso   1.000  Zn
  Zn22     1.0000 0.79361  0.29361  0.29361  Biso   1.000  Zn
  Zn23     1.0000 0.29361  0.79361  0.29361  Biso   1.000  Zn
  Zn24     1.0000 0.29361  0.29361  0.79361  Biso   1.000  Zn
  Zn25     1.0000 0.20639  0.79361  0.20639  Biso   1.000  Zn
  Zn26     1.0000 0.20639  0.29361  0.70639  Biso   1.000  Zn
  Zn27     1.0000 0.70639  0.79361  0.70639  Biso   1.000  Zn
  Zn28     1.0000 0.70639  0.29361  0.20639  Biso   1.000  Zn
  Zn29     1.0000 0.79361  0.20639  0.20639  Biso   1.000  Zn
  Zn30     1.0000 0.79361  0.70639  0.70639  Biso   1.000  Zn
  Zn31     1.0000 0.29361  0.20639  0.70639  Biso   1.000  Zn
  Zn32     1.0000 0.29361  0.70639  0.20639  Biso   1.000  Zn
  H1       1.0000 0.18997  0.04033  0.18997  Biso   1.000  H
  H2       1.0000 0.18997  0.54033  0.68997  Biso   1.000  H
  H3       1.0000 0.68997  0.04033  0.68997  Biso   1.000  H
  H4       1.0000 0.68997  0.54033  0.18997  Biso   1.000  H
  H5       1.0000 0.81003  0.95967  0.18997  Biso   1.000  H
  H6       1.0000 0.81003  0.45967  0.68997  Biso   1.000  H
  H7       1.0000 0.31003  0.95967  0.68997  Biso   1.000  H
  H8       1.0000 0.31003  0.45967  0.18997  Biso   1.000  H
  H9       1.0000 0.81003  0.04033  0.81003  Biso   1.000  H
  H10      1.0000 0.81003  0.54033  0.31003  Biso   1.000  H
  H11      1.0000 0.31003  0.04033  0.31003  Biso   1.000  H
  H12      1.0000 0.31003  0.54033  0.81003  Biso   1.000  H
  H13      1.0000 0.18997  0.95967  0.81003  Biso   1.000  H
  H14      1.0000 0.18997  0.45967  0.31003  Biso   1.000  H
  H15      1.0000 0.68997  0.95967  0.31003  Biso   1.000  H
  H16      1.0000 0.68997  0.45967  0.81003  Biso   1.000  H
  H17      1.0000 0.18997  0.18997  0.04033  Biso   1.000  H
  H18      1.0000 0.18997  0.68997  0.54033  Biso   1.000  H
  H19      1.0000 0.68997  0.18997  0.54033  Biso   1.000  H
  H20      1.0000 0.68997  0.68997  0.04033  Biso   1.000  H
  H21      1.0000 0.18997  0.81003  0.95967  Biso   1.000  H
  H22      1.0000 0.18997  0.31003  0.45967  Biso   1.000  H
  H23      1.0000 0.68997  0.81003  0.45967  Biso   1.000  H
  H24      1.0000 0.68997  0.31003  0.95967  Biso   1.000  H
  H25      1.0000 0.81003  0.81003  0.04033  Biso   1.000  H
  H26      1.0000 0.81003  0.31003  0.54033  Biso   1.000  H
  H27      1.0000 0.31003  0.81003  0.54033  Biso   1.000  H
  H28      1.0000 0.31003  0.31003  0.04033  Biso   1.000  H
  H29      1.0000 0.81003  0.18997  0.95967  Biso   1.000  H
  H30      1.0000 0.81003  0.68997  0.45967  Biso   1.000  H
  H31      1.0000 0.31003  0.18997  0.45967  Biso   1.000  H
  H32      1.0000 0.31003  0.68997  0.95967  Biso   1.000  H
  H33      1.0000 0.04033  0.18997  0.18997  Biso   1.000  H
  H34      1.0000 0.04033  0.68997  0.68997  Biso   1.000  H
  H35      1.0000 0.54033  0.18997  0.68997  Biso   1.000  H
  H36      1.0000 0.54033  0.68997  0.18997  Biso   1.000  H
  H37      1.0000 0.95967  0.18997  0.81003  Biso   1.000  H
  H38      1.0000 0.95967  0.68997  0.31003  Biso   1.000  H
  H39      1.0000 0.45967  0.18997  0.31003  Biso   1.000  H
  H40      1.0000 0.45967  0.68997  0.81003  Biso   1.000  H
  H41      1.0000 0.04033  0.81003  0.81003  Biso   1.000  H
  H42      1.0000 0.04033  0.31003  0.31003  Biso   1.000  H
  H43      1.0000 0.54033  0.81003  0.31003  Biso   1.000  H
  H44      1.0000 0.54033  0.31003  0.81003  Biso   1.000  H
  H45      1.0000 0.95967  0.81003  0.18997  Biso   1.000  H
  H46      1.0000 0.95967  0.31003  0.68997  Biso   1.000  H
  H47      1.0000 0.45967  0.81003  0.68997  Biso   1.000  H
  H48      1.0000 0.45967  0.31003  0.18997  Biso   1.000  H
  H49      1.0000 0.04033  0.18997  0.81003  Biso   1.000  H
  H50      1.0000 0.04033  0.68997  0.31003  Biso   1.000  H
  H51      1.0000 0.54033  0.18997  0.31003  Biso   1.000  H
  H52      1.0000 0.54033  0.68997  0.81003  Biso   1.000  H
  H53      1.0000 0.95967  0.81003  0.81003  Biso   1.000  H
  H54      1.0000 0.95967  0.31003  0.31003  Biso   1.000  H
  H55      1.0000 0.45967  0.81003  0.31003  Biso   1.000  H
  H56      1.0000 0.45967  0.31003  0.81003  Biso   1.000  H
  H57      1.0000 0.04033  0.81003  0.18997  Biso   1.000  H
  H58      1.0000 0.04033  0.31003  0.68997  Biso   1.000  H
  H59      1.0000 0.54033  0.81003  0.68997  Biso   1.000  H
  H60      1.0000 0.54033  0.31003  0.18997  Biso   1.000  H
  H61      1.0000 0.95967  0.18997  0.18997  Biso   1.000  H
  H62      1.0000 0.95967  0.68997  0.68997  Biso   1.000  H
  H63      1.0000 0.45967  0.18997  0.68997  Biso   1.000  H
  H64      1.0000 0.45967  0.68997  0.18997  Biso   1.000  H
  H65      1.0000 0.18997  0.18997  0.95967  Biso   1.000  H
  H66      1.0000 0.18997  0.68997  0.45967  Biso   1.000  H
  H67      1.0000 0.68997  0.18997  0.45967  Biso   1.000  H
  H68      1.0000 0.68997  0.68997  0.95967  Biso   1.000  H
  H69      1.0000 0.81003  0.18997  0.04033  Biso   1.000  H
  H70      1.0000 0.81003  0.68997  0.54033  Biso   1.000  H
  H71      1.0000 0.31003  0.18997  0.54033  Biso   1.000  H
  H72      1.0000 0.31003  0.68997  0.04033  Biso   1.000  H
  H73      1.0000 0.81003  0.81003  0.95967  Biso   1.000  H
  H74      1.0000 0.81003  0.31003  0.45967  Biso   1.000  H
  H75      1.0000 0.31003  0.81003  0.45967  Biso   1.000  H
  H76      1.0000 0.31003  0.31003  0.95967  Biso   1.000  H
  H77      1.0000 0.18997  0.81003  0.04033  Biso   1.000  H
  H78      1.0000 0.18997  0.31003  0.54033  Biso   1.000  H
  H79      1.0000 0.68997  0.81003  0.54033  Biso   1.000  H
  H80      1.0000 0.68997  0.31003  0.04033  Biso   1.000  H
  H81      1.0000 0.18997  0.04033  0.81003  Biso   1.000  H
  H82      1.0000 0.18997  0.54033  0.31003  Biso   1.000  H
  H83      1.0000 0.68997  0.04033  0.31003  Biso   1.000  H
  H84      1.0000 0.68997  0.54033  0.81003  Biso   1.000  H
  H85      1.0000 0.18997  0.95967  0.18997  Biso   1.000  H
  H86      1.0000 0.18997  0.45967  0.68997  Biso   1.000  H
  H87      1.0000 0.68997  0.95967  0.68997  Biso   1.000  H
  H88      1.0000 0.68997  0.45967  0.18997  Biso   1.000  H
  H89      1.0000 0.81003  0.04033  0.18997  Biso   1.000  H
  H90      1.0000 0.81003  0.54033  0.68997  Biso   1.000  H
  H91      1.0000 0.31003  0.04033  0.68997  Biso   1.000  H
  H92      1.0000 0.31003  0.54033  0.18997  Biso   1.000  H
  H93      1.0000 0.81003  0.95967  0.81003  Biso   1.000  H
  H94      1.0000 0.81003  0.45967  0.31003  Biso   1.000  H
  H95      1.0000 0.31003  0.95967  0.31003  Biso   1.000  H
  H96      1.0000 0.31003  0.45967  0.81003  Biso   1.000  H
  O105     1.0000 0.35082  0.00000  0.00000  Biso   1.000  O
  C193     1.0000 0.24042  0.99570  0.99570  Biso   1.000  C
  O106     1.0000 0.85082  0.50000  0.00000  Biso   1.000  O
  C194     1.0000 0.74042  0.49570  0.99570  Biso   1.000  C
  O107     1.0000 0.35082  0.50000  0.50000  Biso   1.000  O
  C195     1.0000 0.24042  0.49570  0.49570  Biso   1.000  C
  O108     1.0000 0.85082  0.00000  0.50000  Biso   1.000  O
  C196     1.0000 0.74042  0.99570  0.49570  Biso   1.000  C
  O109     1.0000 0.08402  1.00000  0.42920  Biso   1.000  O
  C197     1.0000 0.19442  0.99570  0.43350  Biso   1.000  C
  O110     1.0000 0.58402  0.50000  0.42920  Biso   1.000  O
  C198     1.0000 0.69442  0.49570  0.43350  Biso   1.000  C
  O111     1.0000 0.08402  0.50000  0.92920  Biso   1.000  O
  C199     1.0000 0.19442  0.49570  0.93350  Biso   1.000  C
  O112     1.0000 0.58402  0.00000  0.92920  Biso   1.000  O
  C200     1.0000 0.69442  0.99570  0.93350  Biso   1.000  C
  O113     1.0000 0.35082  0.42920  0.42920  Biso   1.000  O
  C201     1.0000 0.24042  0.43350  0.43350  Biso   1.000  C
  O114     1.0000 0.85082  0.92920  0.42920  Biso   1.000  O
  C202     1.0000 0.74042  0.93350  0.43350  Biso   1.000  C
  O115     1.0000 0.35082  0.92920  0.92920  Biso   1.000  O
  C203     1.0000 0.24042  0.93350  0.93350  Biso   1.000  C
  O116     1.0000 0.85082  0.42920  0.92920  Biso   1.000  O
  C204     1.0000 0.74042  0.43350  0.93350  Biso   1.000  C
  O117     1.0000 0.08402  0.42920  0.00000  Biso   1.000  O
  C205     1.0000 0.19442  0.43350  0.99570  Biso   1.000  C
  O118     1.0000 0.58402  0.92920  1.00000  Biso   1.000  O
  C206     1.0000 0.69442  0.93350  0.99570  Biso   1.000  C
  O119     1.0000 0.08402  0.92920  0.50000  Biso   1.000  O
  C207     1.0000 0.19442  0.93350  0.49570  Biso   1.000  C
  O120     1.0000 0.58402  0.42920  0.50000  Biso   1.000  O
  C208     1.0000 0.69442  0.43350  0.49570  Biso   1.000  C
  O121     1.0000 0.43202  0.08120  1.00000  Biso   1.000  O
  C209     1.0000 0.43632  0.19160  0.99570  Biso   1.000  C
  O122     1.0000 0.93202  0.58120  0.00000  Biso   1.000  O
  C210     1.0000 0.93632  0.69160  0.99570  Biso   1.000  C
  O123     1.0000 0.43202  0.58120  0.50000  Biso   1.000  O
  C211     1.0000 0.43632  0.69160  0.49570  Biso   1.000  C
  O124     1.0000 0.93202  0.08120  0.50000  Biso   1.000  O
  C212     1.0000 0.93632  0.19160  0.49570  Biso   1.000  C
  O125     1.0000 0.00282  0.34800  0.00000  Biso   1.000  O
  C213     1.0000 0.99852  0.23760  0.99570  Biso   1.000  C
  O126     1.0000 0.50282  0.84800  1.00000  Biso   1.000  O
  C214     1.0000 0.49852  0.73760  0.99570  Biso   1.000  C
  O127     1.0000 0.00282  0.84800  0.50000  Biso   1.000  O
  C215     1.0000 0.99852  0.73760  0.49570  Biso   1.000  C
  O128     1.0000 0.50282  0.34800  0.50000  Biso   1.000  O
  C216     1.0000 0.49852  0.23760  0.49570  Biso   1.000  C
  O129     1.0000 0.00282  0.08120  0.42920  Biso   1.000  O
  C217     1.0000 0.99852  0.19160  0.43350  Biso   1.000  C
  O130     1.0000 0.50282  0.58120  0.42920  Biso   1.000  O
  C218     1.0000 0.49852  0.69160  0.43350  Biso   1.000  C
  O131     1.0000 0.00282  0.58120  0.92920  Biso   1.000  O
  C219     1.0000 0.99852  0.69160  0.93350  Biso   1.000  C
  O132     1.0000 0.50282  0.08120  0.92920  Biso   1.000  O
  C220     1.0000 0.49852  0.19160  0.93350  Biso   1.000  C
  O133     1.0000 0.43202  0.34800  0.42920  Biso   1.000  O
  C221     1.0000 0.43632  0.23760  0.43350  Biso   1.000  C
  O134     1.0000 0.93202  0.84800  0.42920  Biso   1.000  O
  C222     1.0000 0.93632  0.73760  0.43350  Biso   1.000  C
  O135     1.0000 0.43202  0.84800  0.92920  Biso   1.000  O
  C223     1.0000 0.43632  0.73760  0.93350  Biso   1.000  C
  O136     1.0000 0.93202  0.34800  0.92920  Biso   1.000  O
  C224     1.0000 0.93632  0.23760  0.93350  Biso   1.000  C
  O137     1.0000 0.43202  0.00000  0.08120  Biso   1.000  O
  C225     1.0000 0.43632  0.99570  0.19160  Biso   1.000  C
  O138     1.0000 0.93202  0.50000  0.08120  Biso   1.000  O
  C226     1.0000 0.93632  0.49570  0.19160  Biso   1.000  C
  O139     1.0000 0.43202  0.50000  0.58120  Biso   1.000  O
  C227     1.0000 0.43632  0.49570  0.69160  Biso   1.000  C
  O140     1.0000 0.93202  0.00000  0.58120  Biso   1.000  O
  C228     1.0000 0.93632  0.99570  0.69160  Biso   1.000  C
  O141     1.0000 0.43202  0.42920  0.34800  Biso   1.000  O
  C229     1.0000 0.43632  0.43350  0.23760  Biso   1.000  C
  O142     1.0000 0.93202  0.92920  0.34800  Biso   1.000  O
  C230     1.0000 0.93632  0.93350  0.23760  Biso   1.000  C
  O143     1.0000 0.43202  0.92920  0.84800  Biso   1.000  O
  C231     1.0000 0.43632  0.93350  0.73760  Biso   1.000  C
  O144     1.0000 0.93202  0.42920  0.84800  Biso   1.000  O
  C232     1.0000 0.93632  0.43350  0.73760  Biso   1.000  C
  O145     1.0000 0.00282  0.42920  0.08120  Biso   1.000  O
  C233     1.0000 0.99852  0.43350  0.19160  Biso   1.000  C
  O146     1.0000 0.50282  0.92920  0.08120  Biso   1.000  O
  C234     1.0000 0.49852  0.93350  0.19160  Biso   1.000  C
  O147     1.0000 0.00282  0.92920  0.58120  Biso   1.000  O
  C235     1.0000 0.99852  0.93350  0.69160  Biso   1.000  C
  O148     1.0000 0.50282  0.42920  0.58120  Biso   1.000  O
  C236     1.0000 0.49852  0.43350  0.69160  Biso   1.000  C
  O149     1.0000 0.00282  1.00000  0.34800  Biso   1.000  O
  C237     1.0000 0.99852  0.99570  0.23760  Biso   1.000  C
  O150     1.0000 0.50282  0.50000  0.34800  Biso   1.000  O
  C238     1.0000 0.49852  0.49570  0.23760  Biso   1.000  C
  O151     1.0000 0.00282  0.50000  0.84800  Biso   1.000  O
  C239     1.0000 0.99852  0.49570  0.73760  Biso   1.000  C
  O152     1.0000 0.50282  1.00000  0.84800  Biso   1.000  O
  C240     1.0000 0.49852  0.99570  0.73760  Biso   1.000  C
  O153     1.0000 0.43202  0.42920  0.08120  Biso   1.000  O
  C241     1.0000 0.43632  0.43350  0.19160  Biso   1.000  C
  O154     1.0000 0.93202  0.92920  0.08120  Biso   1.000  O
  C242     1.0000 0.93632  0.93350  0.19160  Biso   1.000  C
  O155     1.0000 0.43202  0.92920  0.58120  Biso   1.000  O
  C243     1.0000 0.43632  0.93350  0.69160  Biso   1.000  C
  O156     1.0000 0.93202  0.42920  0.58120  Biso   1.000  O
  C244     1.0000 0.93632  0.43350  0.69160  Biso   1.000  C
  O157     1.0000 0.00282  0.42920  0.34800  Biso   1.000  O
  C245     1.0000 0.99852  0.43350  0.23760  Biso   1.000  C
  O158     1.0000 0.50282  0.92920  0.34800  Biso   1.000  O
  C246     1.0000 0.49852  0.93350  0.23760  Biso   1.000  C
  O159     1.0000 0.00282  0.92920  0.84800  Biso   1.000  O
  C247     1.0000 0.99852  0.93350  0.73760  Biso   1.000  C
  O160     1.0000 0.50282  0.42920  0.84800  Biso   1.000  O
  C248     1.0000 0.49852  0.43350  0.73760  Biso   1.000  C
  O161     1.0000 0.00282  0.00000  0.08120  Biso   1.000  O
  C249     1.0000 0.99852  0.99570  0.19160  Biso   1.000  C
  O162     1.0000 0.50282  0.50000  0.08120  Biso   1.000  O
  C250     1.0000 0.49852  0.49570  0.19160  Biso   1.000  C
  O163     1.0000 0.00282  0.50000  0.58120  Biso   1.000  O
  C251     1.0000 0.99852  0.49570  0.69160  Biso   1.000  C
  O164     1.0000 0.50282  1.00000  0.58120  Biso   1.000  O
  C252     1.0000 0.49852  0.99570  0.69160  Biso   1.000  C
  O165     1.0000 0.43202  1.00000  0.34800  Biso   1.000  O
  C253     1.0000 0.43632  0.99570  0.23760  Biso   1.000  C
  O166     1.0000 0.93202  0.50000  0.34800  Biso   1.000  O
  C254     1.0000 0.93632  0.49570  0.23760  Biso   1.000  C
  O167     1.0000 0.43202  0.50000  0.84800  Biso   1.000  O
  C255     1.0000 0.43632  0.49570  0.73760  Biso   1.000  C
  O168     1.0000 0.93202  0.00000  0.84800  Biso   1.000  O
  C256     1.0000 0.93632  0.99570  0.73760  Biso   1.000  C
  O169     1.0000 0.43202  0.34800  0.00000  Biso   1.000  O
  C257     1.0000 0.43632  0.23760  0.99570  Biso   1.000  C
  O170     1.0000 0.93202  0.84800  1.00000  Biso   1.000  O
  C258     1.0000 0.93632  0.73760  0.99570  Biso   1.000  C
  O171     1.0000 0.43202  0.84800  0.50000  Biso   1.000  O
  C259     1.0000 0.43632  0.73760  0.49570  Biso   1.000  C
  O172     1.0000 0.93202  0.34800  0.50000  Biso   1.000  O
  C260     1.0000 0.93632  0.23760  0.49570  Biso   1.000  C
  O173     1.0000 0.43202  0.08120  0.42920  Biso   1.000  O
  C261     1.0000 0.43632  0.19160  0.43350  Biso   1.000  C
  O174     1.0000 0.93202  0.58120  0.42920  Biso   1.000  O
  C262     1.0000 0.93632  0.69160  0.43350  Biso   1.000  C
  O175     1.0000 0.43202  0.58120  0.92920  Biso   1.000  O
  C263     1.0000 0.43632  0.69160  0.93350  Biso   1.000  C
  O176     1.0000 0.93202  0.08120  0.92920  Biso   1.000  O
  C264     1.0000 0.93632  0.19160  0.93350  Biso   1.000  C
  O177     1.0000 0.00282  0.34800  0.42920  Biso   1.000  O
  C265     1.0000 0.99852  0.23760  0.43350  Biso   1.000  C
  O178     1.0000 0.50282  0.84800  0.42920  Biso   1.000  O
  C266     1.0000 0.49852  0.73760  0.43350  Biso   1.000  C
  O179     1.0000 0.00282  0.84800  0.92920  Biso   1.000  O
  C267     1.0000 0.99852  0.73760  0.93350  Biso   1.000  C
  O180     1.0000 0.50282  0.34800  0.92920  Biso   1.000  O
  C268     1.0000 0.49852  0.23760  0.93350  Biso   1.000  C
  O181     1.0000 0.00282  0.08120  1.00000  Biso   1.000  O
  C269     1.0000 0.99852  0.19160  0.99570  Biso   1.000  C
  O182     1.0000 0.50282  0.58120  0.00000  Biso   1.000  O
  C270     1.0000 0.49852  0.69160  0.99570  Biso   1.000  C
  O183     1.0000 0.00282  0.58120  0.50000  Biso   1.000  O
  C271     1.0000 0.99852  0.69160  0.49570  Biso   1.000  C
  O184     1.0000 0.50282  0.08120  0.50000  Biso   1.000  O
  C272     1.0000 0.49852  0.19160  0.49570  Biso   1.000  C
  O185     1.0000 0.35082  0.42920  0.00000  Biso   1.000  O
  C273     1.0000 0.24042  0.43350  0.99570  Biso   1.000  C
  O186     1.0000 0.85082  0.92920  0.00000  Biso   1.000  O
  C274     1.0000 0.74042  0.93350  0.99570  Biso   1.000  C
  O187     1.0000 0.35082  0.92920  0.50000  Biso   1.000  O
  C275     1.0000 0.24042  0.93350  0.49570  Biso   1.000  C
  O188     1.0000 0.85082  0.42920  0.50000  Biso   1.000  O
  C276     1.0000 0.74042  0.43350  0.49570  Biso   1.000  C
  O189     1.0000 0.08402  0.00000  1.00000  Biso   1.000  O
  C277     1.0000 0.19442  0.99570  0.99570  Biso   1.000  C
  O190     1.0000 0.58402  0.50000  0.00000  Biso   1.000  O
  C278     1.0000 0.69442  0.49570  0.99570  Biso   1.000  C
  O191     1.0000 0.08402  0.50000  0.50000  Biso   1.000  O
  C279     1.0000 0.19442  0.49570  0.49570  Biso   1.000  C
  O192     1.0000 0.58402  1.00000  0.50000  Biso   1.000  O
  C280     1.0000 0.69442  0.99570  0.49570  Biso   1.000  C
  O193     1.0000 0.35082  1.00000  0.42920  Biso   1.000  O
  C281     1.0000 0.24042  0.99570  0.43350  Biso   1.000  C
  O194     1.0000 0.85082  0.50000  0.42920  Biso   1.000  O
  C282     1.0000 0.74042  0.49570  0.43350  Biso   1.000  C
  O195     1.0000 0.35082  0.50000  0.92920  Biso   1.000  O
  C283     1.0000 0.24042  0.49570  0.93350  Biso   1.000  C
  O196     1.0000 0.85082  0.00000  0.92920  Biso   1.000  O
  C284     1.0000 0.74042  0.99570  0.93350  Biso   1.000  C
  O197     1.0000 0.08402  0.42920  0.42920  Biso   1.000  O
  C285     1.0000 0.19442  0.43350  0.43350  Biso   1.000  C
  O198     1.0000 0.58402  0.92920  0.42920  Biso   1.000  O
  C286     1.0000 0.69442  0.93350  0.43350  Biso   1.000  C
  O199     1.0000 0.08402  0.92920  0.92920  Biso   1.000  O
  C287     1.0000 0.19442  0.93350  0.93350  Biso   1.000  C
  O200     1.0000 0.58402  0.42920  0.92920  Biso   1.000  O
  C288     1.0000 0.69442  0.43350  0.93350  Biso   1.000  C
  O201     1.0000 0.46742  0.96460  0.96460  Biso   1.000  O
  O202     1.0000 0.96742  0.96460  0.46460  Biso   1.000  O
  O203     1.0000 0.46742  0.46460  0.46460  Biso   1.000  O
  O204     1.0000 0.96742  0.46460  0.96460  Biso   1.000  O
  O205     1.0000 0.46742  0.46460  0.96460  Biso   1.000  O
  O206     1.0000 0.96742  0.46460  0.46460  Biso   1.000  O
  O207     1.0000 0.46742  0.96460  0.46460  Biso   1.000  O
  O208     1.0000 0.96742  0.96460  0.96460  Biso   1.000  O
  C289     1.0000 0.33262  0.96460  0.96460  Biso   1.000  C
  C290     1.0000 0.27362  0.96460  0.96460  Biso   1.000  C
  C291     1.0000 0.83262  0.46460  0.96460  Biso   1.000  C
  C292     1.0000 0.77362  0.46460  0.96460  Biso   1.000  C
  C293     1.0000 0.10222  0.96460  0.46460  Biso   1.000  C
  C294     1.0000 0.16122  0.96460  0.46460  Biso   1.000  C
  C295     1.0000 0.60222  0.46460  0.46460  Biso   1.000  C
  C296     1.0000 0.66122  0.46460  0.46460  Biso   1.000  C
  C297     1.0000 0.60222  0.96460  0.96460  Biso   1.000  C
  C298     1.0000 0.66122  0.96460  0.96460  Biso   1.000  C
  C299     1.0000 0.33262  0.46460  0.46460  Biso   1.000  C
  C300     1.0000 0.27362  0.46460  0.46460  Biso   1.000  C
  C301     1.0000 0.83262  0.96460  0.46460  Biso   1.000  C
  C302     1.0000 0.77362  0.96460  0.46460  Biso   1.000  C
  C303     1.0000 0.10222  0.46460  0.96460  Biso   1.000  C
  C304     1.0000 0.16122  0.46460  0.96460  Biso   1.000  C
  C305     1.0000 0.46742  0.09940  0.96460  Biso   1.000  C
  C306     1.0000 0.46742  0.15840  0.96460  Biso   1.000  C
  C307     1.0000 0.96742  0.59940  0.96460  Biso   1.000  C
  C308     1.0000 0.96742  0.65840  0.96460  Biso   1.000  C
  C309     1.0000 0.96742  0.32980  0.96460  Biso   1.000  C
  C310     1.0000 0.96742  0.27080  0.96460  Biso   1.000  C
  C311     1.0000 0.46742  0.82980  0.96460  Biso   1.000  C
  C312     1.0000 0.46742  0.77080  0.96460  Biso   1.000  C
  C313     1.0000 0.96742  0.09940  0.46460  Biso   1.000  C
  C314     1.0000 0.96742  0.15840  0.46460  Biso   1.000  C
  C315     1.0000 0.46742  0.59940  0.46460  Biso   1.000  C
  C316     1.0000 0.46742  0.65840  0.46460  Biso   1.000  C
  C317     1.0000 0.46742  0.32980  0.46460  Biso   1.000  C
  C318     1.0000 0.46742  0.27080  0.46460  Biso   1.000  C
  C319     1.0000 0.96742  0.82980  0.46460  Biso   1.000  C
  C320     1.0000 0.96742  0.77080  0.46460  Biso   1.000  C
  C321     1.0000 0.46742  0.96460  0.09940  Biso   1.000  C
  C322     1.0000 0.46742  0.96460  0.15840  Biso   1.000  C
  C323     1.0000 0.46742  0.46460  0.59940  Biso   1.000  C
  C324     1.0000 0.46742  0.46460  0.65840  Biso   1.000  C
  C325     1.0000 0.46742  0.46460  0.32980  Biso   1.000  C
  C326     1.0000 0.46742  0.46460  0.27080  Biso   1.000  C
  C327     1.0000 0.46742  0.96460  0.82980  Biso   1.000  C
  C328     1.0000 0.46742  0.96460  0.77080  Biso   1.000  C
  C329     1.0000 0.96742  0.46460  0.09940  Biso   1.000  C
  C330     1.0000 0.96742  0.46460  0.15840  Biso   1.000  C
  C331     1.0000 0.96742  0.96460  0.59940  Biso   1.000  C
  C332     1.0000 0.96742  0.96460  0.65840  Biso   1.000  C
  C333     1.0000 0.96742  0.96460  0.32980  Biso   1.000  C
  C334     1.0000 0.96742  0.96460  0.27080  Biso   1.000  C
  C335     1.0000 0.96742  0.46460  0.82980  Biso   1.000  C
  C336     1.0000 0.96742  0.46460  0.77080  Biso   1.000  C
  C337     1.0000 0.46742  0.46460  0.09940  Biso   1.000  C
  C338     1.0000 0.46742  0.46460  0.15840  Biso   1.000  C
  C339     1.0000 0.46742  0.96460  0.59940  Biso   1.000  C
  C340     1.0000 0.46742  0.96460  0.65840  Biso   1.000  C
  C341     1.0000 0.96742  0.46460  0.32980  Biso   1.000  C
  C342     1.0000 0.96742  0.46460  0.27080  Biso   1.000  C
  C343     1.0000 0.46742  0.96460  0.32980  Biso   1.000  C
  C344     1.0000 0.46742  0.96460  0.27080  Biso   1.000  C
  C345     1.0000 0.96742  0.96460  0.82980  Biso   1.000  C
  C346     1.0000 0.96742  0.96460  0.77080  Biso   1.000  C
  C347     1.0000 0.96742  0.96460  0.09940  Biso   1.000  C
  C348     1.0000 0.96742  0.96460  0.15840  Biso   1.000  C
  C349     1.0000 0.96742  0.46460  0.59940  Biso   1.000  C
  C350     1.0000 0.96742  0.46460  0.65840  Biso   1.000  C
  C351     1.0000 0.46742  0.46460  0.82980  Biso   1.000  C
  C352     1.0000 0.46742  0.46460  0.77080  Biso   1.000  C
  C353     1.0000 0.46742  0.32980  0.96460  Biso   1.000  C
  C354     1.0000 0.46742  0.27080  0.96460  Biso   1.000  C
  C355     1.0000 0.96742  0.82980  0.96460  Biso   1.000  C
  C356     1.0000 0.96742  0.77080  0.96460  Biso   1.000  C
  C357     1.0000 0.46742  0.09940  0.46460  Biso   1.000  C
  C358     1.0000 0.46742  0.15840  0.46460  Biso   1.000  C
  C359     1.0000 0.96742  0.59940  0.46460  Biso   1.000  C
  C360     1.0000 0.96742  0.65840  0.46460  Biso   1.000  C
  C361     1.0000 0.46742  0.59940  0.96460  Biso   1.000  C
  C362     1.0000 0.46742  0.65840  0.96460  Biso   1.000  C
  C363     1.0000 0.96742  0.32980  0.46460  Biso   1.000  C
  C364     1.0000 0.96742  0.27080  0.46460  Biso   1.000  C
  C365     1.0000 0.46742  0.82980  0.46460  Biso   1.000  C
  C366     1.0000 0.46742  0.77080  0.46460  Biso   1.000  C
  C367     1.0000 0.96742  0.09940  0.96460  Biso   1.000  C
  C368     1.0000 0.96742  0.15840  0.96460  Biso   1.000  C
  C369     1.0000 0.33262  0.46460  0.96460  Biso   1.000  C
  C370     1.0000 0.27362  0.46460  0.96460  Biso   1.000  C
  C371     1.0000 0.83262  0.96460  0.96460  Biso   1.000  C
  C372     1.0000 0.77362  0.96460  0.96460  Biso   1.000  C
  C373     1.0000 0.10222  0.96460  0.96460  Biso   1.000  C
  C374     1.0000 0.16122  0.96460  0.96460  Biso   1.000  C
  C375     1.0000 0.60222  0.46460  0.96460  Biso   1.000  C
  C376     1.0000 0.66122  0.46460  0.96460  Biso   1.000  C
  C377     1.0000 0.33262  0.96460  0.46460  Biso   1.000  C
  C378     1.0000 0.27362  0.96460  0.46460  Biso   1.000  C
  C379     1.0000 0.83262  0.46460  0.46460  Biso   1.000  C
  C380     1.0000 0.77362  0.46460  0.46460  Biso   1.000  C
  C381     1.0000 0.10222  0.46460  0.46460  Biso   1.000  C
  C382     1.0000 0.16122  0.46460  0.46460  Biso   1.000  C
  C383     1.0000 0.60222  0.96460  0.46460  Biso   1.000  C
  C384     1.0000 0.66122  0.96460  0.46460  Biso   1.000  C
  Zn33     1.0000 0.42381  0.00821  0.00821  Biso   1.000  Zn
  Zn34     1.0000 0.92381  0.50821  0.00821  Biso   1.000  Zn
  Zn35     1.0000 0.42381  0.50821  0.50821  Biso   1.000  Zn
  Zn36     1.0000 0.92381  0.00821  0.50821  Biso   1.000  Zn
  Zn37     1.0000 0.01103  0.00821  0.42099  Biso   1.000  Zn
  Zn38     1.0000 0.51103  0.50821  0.42099  Biso   1.000  Zn
  Zn39     1.0000 0.01103  0.50821  0.92099  Biso   1.000  Zn
  Zn40     1.0000 0.51103  0.00821  0.92099  Biso   1.000  Zn
  Zn41     1.0000 0.42381  0.42099  0.42099  Biso   1.000  Zn
  Zn42     1.0000 0.92381  0.92099  0.42099  Biso   1.000  Zn
  Zn43     1.0000 0.42381  0.92099  0.92099  Biso   1.000  Zn
  Zn44     1.0000 0.92381  0.42099  0.92099  Biso   1.000  Zn
  Zn45     1.0000 0.01103  0.42099  0.00821  Biso   1.000  Zn
  Zn46     1.0000 0.51103  0.92099  0.00821  Biso   1.000  Zn
  Zn47     1.0000 0.01103  0.92099  0.50821  Biso   1.000  Zn
  Zn48     1.0000 0.51103  0.42099  0.50821  Biso   1.000  Zn
  Zn49     1.0000 0.42381  0.42099  0.00821  Biso   1.000  Zn
  Zn50     1.0000 0.92381  0.92099  0.00821  Biso   1.000  Zn
  Zn51     1.0000 0.42381  0.92099  0.50821  Biso   1.000  Zn
  Zn52     1.0000 0.92381  0.42099  0.50821  Biso   1.000  Zn
  Zn53     1.0000 0.01103  0.42099  0.42099  Biso   1.000  Zn
  Zn54     1.0000 0.51103  0.92099  0.42099  Biso   1.000  Zn
  Zn55     1.0000 0.01103  0.92099  0.92099  Biso   1.000  Zn
  Zn56     1.0000 0.51103  0.42099  0.92099  Biso   1.000  Zn
  Zn57     1.0000 0.01103  0.00821  0.00821  Biso   1.000  Zn
  Zn58     1.0000 0.51103  0.50821  0.00821  Biso   1.000  Zn
  Zn59     1.0000 0.01103  0.50821  0.50821  Biso   1.000  Zn
  Zn60     1.0000 0.51103  0.00821  0.50821  Biso   1.000  Zn
  Zn61     1.0000 0.42381  0.00821  0.42099  Biso   1.000  Zn
  Zn62     1.0000 0.92381  0.50821  0.42099  Biso   1.000  Zn
  Zn63     1.0000 0.42381  0.50821  0.92099  Biso   1.000  Zn
  Zn64     1.0000 0.92381  0.00821  0.92099  Biso   1.000  Zn
  H97      1.0000 0.25775  0.02463  0.02463  Biso   1.000  H
  H98      1.0000 0.75775  0.52463  0.02463  Biso   1.000  H
  H99      1.0000 0.25775  0.52463  0.52463  Biso   1.000  H
  H100     1.0000 0.75775  0.02463  0.52463  Biso   1.000  H
  H101     1.0000 0.17709  0.02463  0.40457  Biso   1.000  H
  H102     1.0000 0.67709  0.52463  0.40457  Biso   1.000  H
  H103     1.0000 0.17709  0.52463  0.90457  Biso   1.000  H
  H104     1.0000 0.67709  0.02463  0.90457  Biso   1.000  H
  H105     1.0000 0.25775  0.40457  0.40457  Biso   1.000  H
  H106     1.0000 0.75775  0.90457  0.40457  Biso   1.000  H
  H107     1.0000 0.25775  0.90457  0.90457  Biso   1.000  H
  H108     1.0000 0.75775  0.40457  0.90457  Biso   1.000  H
  H109     1.0000 0.17709  0.40457  0.02463  Biso   1.000  H
  H110     1.0000 0.67709  0.90457  0.02463  Biso   1.000  H
  H111     1.0000 0.17709  0.90457  0.52463  Biso   1.000  H
  H112     1.0000 0.67709  0.40457  0.52463  Biso   1.000  H
  H113     1.0000 0.40739  0.17427  0.02463  Biso   1.000  H
  H114     1.0000 0.90739  0.67427  0.02463  Biso   1.000  H
  H115     1.0000 0.40739  0.67427  0.52463  Biso   1.000  H
  H116     1.0000 0.90739  0.17427  0.52463  Biso   1.000  H
  H117     1.0000 0.02745  0.25493  0.02463  Biso   1.000  H
  H118     1.0000 0.52745  0.75493  0.02463  Biso   1.000  H
  H119     1.0000 0.02745  0.75493  0.52463  Biso   1.000  H
  H120     1.0000 0.52745  0.25493  0.52463  Biso   1.000  H
  H121     1.0000 0.02745  0.17427  0.40457  Biso   1.000  H
  H122     1.0000 0.52745  0.67427  0.40457  Biso   1.000  H
  H123     1.0000 0.02745  0.67427  0.90457  Biso   1.000  H
  H124     1.0000 0.52745  0.17427  0.90457  Biso   1.000  H
  H125     1.0000 0.40739  0.25493  0.40457  Biso   1.000  H
  H126     1.0000 0.90739  0.75493  0.40457  Biso   1.000  H
  H127     1.0000 0.40739  0.75493  0.90457  Biso   1.000  H
  H128     1.0000 0.90739  0.25493  0.90457  Biso   1.000  H
  H129     1.0000 0.40739  0.02463  0.17427  Biso   1.000  H
  H130     1.0000 0.90739  0.52463  0.17427  Biso   1.000  H
  H131     1.0000 0.40739  0.52463  0.67427  Biso   1.000  H
  H132     1.0000 0.90739  0.02463  0.67427  Biso   1.000  H
  H133     1.0000 0.40739  0.40457  0.25493  Biso   1.000  H
  H134     1.0000 0.90739  0.90457  0.25493  Biso   1.000  H
  H135     1.0000 0.40739  0.90457  0.75493  Biso   1.000  H
  H136     1.0000 0.90739  0.40457  0.75493  Biso   1.000  H
  H137     1.0000 0.02745  0.40457  0.17427  Biso   1.000  H
  H138     1.0000 0.52745  0.90457  0.17427  Biso   1.000  H
  H139     1.0000 0.02745  0.90457  0.67427  Biso   1.000  H
  H140     1.0000 0.52745  0.40457  0.67427  Biso   1.000  H
  H141     1.0000 0.02745  0.02463  0.25493  Biso   1.000  H
  H142     1.0000 0.52745  0.52463  0.25493  Biso   1.000  H
  H143     1.0000 0.02745  0.52463  0.75493  Biso   1.000  H
  H144     1.0000 0.52745  0.02463  0.75493  Biso   1.000  H
  H145     1.0000 0.40739  0.40457  0.17427  Biso   1.000  H
  H146     1.0000 0.90739  0.90457  0.17427  Biso   1.000  H
  H147     1.0000 0.40739  0.90457  0.67427  Biso   1.000  H
  H148     1.0000 0.90739  0.40457  0.67427  Biso   1.000  H
  H149     1.0000 0.02745  0.40457  0.25493  Biso   1.000  H
  H150     1.0000 0.52745  0.90457  0.25493  Biso   1.000  H
  H151     1.0000 0.02745  0.90457  0.75493  Biso   1.000  H
  H152     1.0000 0.52745  0.40457  0.75493  Biso   1.000  H
  H153     1.0000 0.02745  0.02463  0.17427  Biso   1.000  H
  H154     1.0000 0.52745  0.52463  0.17427  Biso   1.000  H
  H155     1.0000 0.02745  0.52463  0.67427  Biso   1.000  H
  H156     1.0000 0.52745  0.02463  0.67427  Biso   1.000  H
  H157     1.0000 0.40739  0.02463  0.25493  Biso   1.000  H
  H158     1.0000 0.90739  0.52463  0.25493  Biso   1.000  H
  H159     1.0000 0.40739  0.52463  0.75493  Biso   1.000  H
  H160     1.0000 0.90739  0.02463  0.75493  Biso   1.000  H
  H161     1.0000 0.40739  0.25493  0.02463  Biso   1.000  H
  H162     1.0000 0.90739  0.75493  0.02463  Biso   1.000  H
  H163     1.0000 0.40739  0.75493  0.52463  Biso   1.000  H
  H164     1.0000 0.90739  0.25493  0.52463  Biso   1.000  H
  H165     1.0000 0.40739  0.17427  0.40457  Biso   1.000  H
  H166     1.0000 0.90739  0.67427  0.40457  Biso   1.000  H
  H167     1.0000 0.40739  0.67427  0.90457  Biso   1.000  H
  H168     1.0000 0.90739  0.17427  0.90457  Biso   1.000  H
  H169     1.0000 0.02745  0.25493  0.40457  Biso   1.000  H
  H170     1.0000 0.52745  0.75493  0.40457  Biso   1.000  H
  H171     1.0000 0.02745  0.75493  0.90457  Biso   1.000  H
  H172     1.0000 0.52745  0.25493  0.90457  Biso   1.000  H
  H173     1.0000 0.02745  0.17427  0.02463  Biso   1.000  H
  H174     1.0000 0.52745  0.67427  0.02463  Biso   1.000  H
  H175     1.0000 0.02745  0.67427  0.52463  Biso   1.000  H
  H176     1.0000 0.52745  0.17427  0.52463  Biso   1.000  H
  H177     1.0000 0.25775  0.40457  0.02463  Biso   1.000  H
  H178     1.0000 0.75775  0.90457  0.02463  Biso   1.000  H
  H179     1.0000 0.25775  0.90457  0.52463  Biso   1.000  H
  H180     1.0000 0.75775  0.40457  0.52463  Biso   1.000  H
  H181     1.0000 0.17709  0.02463  0.02463  Biso   1.000  H
  H182     1.0000 0.67709  0.52463  0.02463  Biso   1.000  H
  H183     1.0000 0.17709  0.52463  0.52463  Biso   1.000  H
  H184     1.0000 0.67709  0.02463  0.52463  Biso   1.000  H
  H185     1.0000 0.25775  0.02463  0.40457  Biso   1.000  H
  H186     1.0000 0.75775  0.52463  0.40457  Biso   1.000  H
  H187     1.0000 0.25775  0.52463  0.90457  Biso   1.000  H
  H188     1.0000 0.75775  0.02463  0.90457  Biso   1.000  H
  H189     1.0000 0.17709  0.40457  0.40457  Biso   1.000  H
  H190     1.0000 0.67709  0.90457  0.40457  Biso   1.000  H
  H191     1.0000 0.17709  0.90457  0.90457  Biso   1.000  H
