data_image0
_cell_length_a       25.6349
_cell_length_b       25.6349
_cell_length_c       25.6349
_cell_angle_alpha    90
_cell_angle_beta     90
_cell_angle_gamma    90

_symmetry_space_group_name_H-M    "P 1"
_symmetry_int_tables_number       1

loop_
  _symmetry_equiv_pos_as_xyz
  'x, y, z'

loop_
  _atom_site_label
  _atom_site_occupancy
  _atom_site_fract_x
  _atom_site_fract_y
  _atom_site_fract_z
  _atom_site_thermal_displace_type
  _atom_site_B_iso_or_equiv
  _atom_site_type_symbol
  C1       1.0000 0.12500  0.62500  0.87500  Biso   1.000  C
  C2       1.0000 0.37500  0.37500  0.37500  Biso   1.000  C
  C3       1.0000 0.87500  0.12500  0.62500  Biso   1.000  C
  C4       1.0000 0.62500  0.87500  0.12500  Biso   1.000  C
  C5       1.0000 0.04477  0.54477  0.95523  Biso   1.000  C
  C6       1.0000 0.45523  0.45523  0.45523  Biso   1.000  C
  C7       1.0000 0.95523  0.04477  0.54477  Biso   1.000  C
  C8       1.0000 0.54477  0.95523  0.04477  Biso   1.000  C
  C9       1.0000 0.29477  0.29477  0.29477  Biso   1.000  C
  C10      1.0000 0.20523  0.70523  0.79477  Biso   1.000  C
  C11      1.0000 0.79477  0.20523  0.70523  Biso   1.000  C
  C12      1.0000 0.70523  0.79477  0.20523  Biso   1.000  C
  C13      1.0000 0.18830  0.68280  0.99930  Biso   1.000  C
  C14      1.0000 0.25530  0.70610  0.05510  Biso   1.000  C
  C15      1.0000 0.23320  0.57150  0.13380  Biso   1.000  C
  C16      1.0000 0.16690  0.54930  0.07640  Biso   1.000  C
  C17      1.0000 0.31170  0.31720  0.49930  Biso   1.000  C
  C18      1.0000 0.24470  0.29390  0.55510  Biso   1.000  C
  C19      1.0000 0.26680  0.42850  0.63380  Biso   1.000  C
  C20      1.0000 0.33310  0.45070  0.57640  Biso   1.000  C
  C21      1.0000 0.81170  0.18280  0.50070  Biso   1.000  C
  C22      1.0000 0.74470  0.20610  0.44490  Biso   1.000  C
  C23      1.0000 0.76680  0.07150  0.36620  Biso   1.000  C
  C24      1.0000 0.83310  0.04930  0.42360  Biso   1.000  C
  C25      1.0000 0.68830  0.81720  0.00070  Biso   1.000  C
  C26      1.0000 0.75530  0.79390  0.94490  Biso   1.000  C
  C27      1.0000 0.73320  0.92850  0.86620  Biso   1.000  C
  C28      1.0000 0.66690  0.95070  0.92360  Biso   1.000  C
  C29      1.0000 0.99930  0.18830  0.68280  Biso   1.000  C
  C30      1.0000 0.05510  0.25530  0.70610  Biso   1.000  C
  C31      1.0000 0.13380  0.23320  0.57150  Biso   1.000  C
  C32      1.0000 0.07640  0.16690  0.54930  Biso   1.000  C
  C33      1.0000 0.49930  0.31170  0.31720  Biso   1.000  C
  C34      1.0000 0.55510  0.24470  0.29390  Biso   1.000  C
  C35      1.0000 0.63380  0.26680  0.42850  Biso   1.000  C
  C36      1.0000 0.57640  0.33310  0.45070  Biso   1.000  C
  C37      1.0000 0.50070  0.81170  0.18280  Biso   1.000  C
  C38      1.0000 0.44490  0.74470  0.20610  Biso   1.000  C
  C39      1.0000 0.36620  0.76680  0.07150  Biso   1.000  C
  C40      1.0000 0.42360  0.83310  0.04930  Biso   1.000  C
  C41      1.0000 0.00070  0.68830  0.81720  Biso   1.000  C
  C42      1.0000 0.94490  0.75530  0.79390  Biso   1.000  C
  C43      1.0000 0.86620  0.73320  0.92850  Biso   1.000  C
  C44      1.0000 0.92360  0.66690  0.95070  Biso   1.000  C
  C45      1.0000 0.68280  0.99930  0.18830  Biso   1.000  C
  C46      1.0000 0.70610  0.05510  0.25530  Biso   1.000  C
  C47      1.0000 0.57150  0.13380  0.23320  Biso   1.000  C
  C48      1.0000 0.54930  0.07640  0.16690  Biso   1.000  C
  C49      1.0000 0.31720  0.49930  0.31170  Biso   1.000  C
  C50      1.0000 0.29390  0.55510  0.24470  Biso   1.000  C
  C51      1.0000 0.42850  0.63380  0.26680  Biso   1.000  C
  C52      1.0000 0.45070  0.57640  0.33310  Biso   1.000  C
  C53      1.0000 0.18280  0.50070  0.81170  Biso   1.000  C
  C54      1.0000 0.20610  0.44490  0.74470  Biso   1.000  C
  C55      1.0000 0.07150  0.36620  0.76680  Biso   1.000  C
  C56      1.0000 0.04930  0.42360  0.83310  Biso   1.000  C
  C57      1.0000 0.81720  0.00070  0.68830  Biso   1.000  C
  C58      1.0000 0.79390  0.94490  0.75530  Biso   1.000  C
  C59      1.0000 0.92850  0.86620  0.73320  Biso   1.000  C
  C60      1.0000 0.95070  0.92360  0.66690  Biso   1.000  C
  C61      1.0000 0.43280  0.43830  0.25070  Biso   1.000  C
  C62      1.0000 0.45610  0.50530  0.19490  Biso   1.000  C
  C63      1.0000 0.32150  0.48320  0.11620  Biso   1.000  C
  C64      1.0000 0.29930  0.41690  0.17360  Biso   1.000  C
  C65      1.0000 0.06720  0.56170  0.75070  Biso   1.000  C
  C66      1.0000 0.04390  0.49470  0.69490  Biso   1.000  C
  C67      1.0000 0.17850  0.51680  0.61620  Biso   1.000  C
  C68      1.0000 0.20070  0.58310  0.67360  Biso   1.000  C
  C69      1.0000 0.93280  0.06170  0.74930  Biso   1.000  C
  C70      1.0000 0.95610  0.99470  0.80510  Biso   1.000  C
  C71      1.0000 0.82150  0.01680  0.88380  Biso   1.000  C
  C72      1.0000 0.79930  0.08310  0.82640  Biso   1.000  C
  C73      1.0000 0.56720  0.93830  0.24930  Biso   1.000  C
  C74      1.0000 0.54390  0.00530  0.30510  Biso   1.000  C
  C75      1.0000 0.67850  0.98320  0.38380  Biso   1.000  C
  C76      1.0000 0.70070  0.91690  0.32640  Biso   1.000  C
  C77      1.0000 0.93830  0.24930  0.56720  Biso   1.000  C
  C78      1.0000 0.00530  0.30510  0.54390  Biso   1.000  C
  C79      1.0000 0.98320  0.38380  0.67850  Biso   1.000  C
  C80      1.0000 0.91690  0.32640  0.70070  Biso   1.000  C
  C81      1.0000 0.06170  0.74930  0.93280  Biso   1.000  C
  C82      1.0000 0.99470  0.80510  0.95610  Biso   1.000  C
  C83      1.0000 0.01680  0.88380  0.82150  Biso   1.000  C
  C84      1.0000 0.08310  0.82640  0.79930  Biso   1.000  C
  C85      1.0000 0.56170  0.75070  0.06720  Biso   1.000  C
  C86      1.0000 0.49470  0.69490  0.04390  Biso   1.000  C
  C87      1.0000 0.51680  0.61620  0.17850  Biso   1.000  C
  C88      1.0000 0.58310  0.67360  0.20070  Biso   1.000  C
  C89      1.0000 0.43830  0.25070  0.43280  Biso   1.000  C
  C90      1.0000 0.50530  0.19490  0.45610  Biso   1.000  C
  C91      1.0000 0.48320  0.11620  0.32150  Biso   1.000  C
  C92      1.0000 0.41690  0.17360  0.29930  Biso   1.000  C
  C93      1.0000 0.74930  0.93280  0.06170  Biso   1.000  C
  C94      1.0000 0.80510  0.95610  0.99470  Biso   1.000  C
  C95      1.0000 0.88380  0.82150  0.01680  Biso   1.000  C
  C96      1.0000 0.82640  0.79930  0.08310  Biso   1.000  C
  C97      1.0000 0.24930  0.56720  0.93830  Biso   1.000  C
  C98      1.0000 0.30510  0.54390  0.00530  Biso   1.000  C
  C99      1.0000 0.38380  0.67850  0.98320  Biso   1.000  C
  C100     1.0000 0.32640  0.70070  0.91690  Biso   1.000  C
  C101     1.0000 0.25070  0.43280  0.43830  Biso   1.000  C
  C102     1.0000 0.19490  0.45610  0.50530  Biso   1.000  C
  C103     1.0000 0.11620  0.32150  0.48320  Biso   1.000  C
  C104     1.0000 0.17360  0.29930  0.41690  Biso   1.000  C
  C105     1.0000 0.75070  0.06720  0.56170  Biso   1.000  C
  C106     1.0000 0.69490  0.04390  0.49470  Biso   1.000  C
  C107     1.0000 0.61620  0.17850  0.51680  Biso   1.000  C
  C108     1.0000 0.67360  0.20070  0.58310  Biso   1.000  C
  C109     1.0000 0.29661  0.65192  0.13352  Biso   1.000  C
  C110     1.0000 0.12818  0.60060  0.99377  Biso   1.000  C
  C111     1.0000 0.17111  0.61468  0.03224  Biso   1.000  C
  C112     1.0000 0.19759  0.66038  0.02631  Biso   1.000  C
  C113     1.0000 0.23802  0.67446  0.05929  Biso   1.000  C
  C114     1.0000 0.25203  0.64007  0.09872  Biso   1.000  C
  C115     1.0000 0.22464  0.59358  0.10630  Biso   1.000  C
  C116     1.0000 0.18469  0.58070  0.07239  Biso   1.000  C
  C117     1.0000 0.20339  0.34808  0.63352  Biso   1.000  C
  C118     1.0000 0.37182  0.39940  0.49377  Biso   1.000  C
  C119     1.0000 0.32889  0.38532  0.53224  Biso   1.000  C
  C120     1.0000 0.30241  0.33962  0.52631  Biso   1.000  C
  C121     1.0000 0.26198  0.32554  0.55929  Biso   1.000  C
  C122     1.0000 0.24797  0.35993  0.59872  Biso   1.000  C
  C123     1.0000 0.27536  0.40642  0.60630  Biso   1.000  C
  C124     1.0000 0.31531  0.41930  0.57239  Biso   1.000  C
  C125     1.0000 0.70339  0.15192  0.36648  Biso   1.000  C
  C126     1.0000 0.87182  0.10060  0.50623  Biso   1.000  C
  C127     1.0000 0.82889  0.11468  0.46776  Biso   1.000  C
  C128     1.0000 0.80241  0.16038  0.47369  Biso   1.000  C
  C129     1.0000 0.76198  0.17446  0.44071  Biso   1.000  C
  C130     1.0000 0.74797  0.14007  0.40128  Biso   1.000  C
  C131     1.0000 0.77536  0.09358  0.39370  Biso   1.000  C
  C132     1.0000 0.81531  0.08070  0.42761  Biso   1.000  C
  C133     1.0000 0.79661  0.84808  0.86648  Biso   1.000  C
  C134     1.0000 0.62818  0.89940  0.00623  Biso   1.000  C
  C135     1.0000 0.67111  0.88532  0.96776  Biso   1.000  C
  C136     1.0000 0.69759  0.83962  0.97369  Biso   1.000  C
  C137     1.0000 0.73802  0.82554  0.94071  Biso   1.000  C
  C138     1.0000 0.75203  0.85993  0.90128  Biso   1.000  C
  C139     1.0000 0.72464  0.90642  0.89370  Biso   1.000  C
  C140     1.0000 0.68469  0.91930  0.92761  Biso   1.000  C
  C141     1.0000 0.13352  0.29661  0.65192  Biso   1.000  C
  C142     1.0000 0.99377  0.12818  0.60060  Biso   1.000  C
  C143     1.0000 0.03224  0.17111  0.61468  Biso   1.000  C
  C144     1.0000 0.02631  0.19759  0.66038  Biso   1.000  C
  C145     1.0000 0.05929  0.23802  0.67446  Biso   1.000  C
  C146     1.0000 0.09872  0.25203  0.64007  Biso   1.000  C
  C147     1.0000 0.10630  0.22464  0.59358  Biso   1.000  C
  C148     1.0000 0.07239  0.18469  0.58070  Biso   1.000  C
  C149     1.0000 0.63352  0.20339  0.34808  Biso   1.000  C
  C150     1.0000 0.49377  0.37182  0.39940  Biso   1.000  C
  C151     1.0000 0.53224  0.32889  0.38532  Biso   1.000  C
  C152     1.0000 0.52631  0.30241  0.33962  Biso   1.000  C
  C153     1.0000 0.55929  0.26198  0.32554  Biso   1.000  C
  C154     1.0000 0.59872  0.24797  0.35993  Biso   1.000  C
  C155     1.0000 0.60630  0.27536  0.40642  Biso   1.000  C
  C156     1.0000 0.57239  0.31531  0.41930  Biso   1.000  C
  C157     1.0000 0.36648  0.70339  0.15192  Biso   1.000  C
  C158     1.0000 0.50623  0.87182  0.10060  Biso   1.000  C
  C159     1.0000 0.46776  0.82889  0.11468  Biso   1.000  C
  C160     1.0000 0.47369  0.80241  0.16038  Biso   1.000  C
  C161     1.0000 0.44071  0.76198  0.17446  Biso   1.000  C
  C162     1.0000 0.40128  0.74797  0.14007  Biso   1.000  C
  C163     1.0000 0.39370  0.77536  0.09358  Biso   1.000  C
  C164     1.0000 0.42761  0.81531  0.08070  Biso   1.000  C
  C165     1.0000 0.86648  0.79661  0.84808  Biso   1.000  C
  C166     1.0000 0.00623  0.62818  0.89940  Biso   1.000  C
  C167     1.0000 0.96776  0.67111  0.88532  Biso   1.000  C
  C168     1.0000 0.97369  0.69759  0.83962  Biso   1.000  C
  C169     1.0000 0.94071  0.73802  0.82554  Biso   1.000  C
  C170     1.0000 0.90128  0.75203  0.85993  Biso   1.000  C
  C171     1.0000 0.89370  0.72464  0.90642  Biso   1.000  C
  C172     1.0000 0.92761  0.68469  0.91930  Biso   1.000  C
  C173     1.0000 0.65192  0.13352  0.29661  Biso   1.000  C
  C174     1.0000 0.60060  0.99377  0.12818  Biso   1.000  C
  C175     1.0000 0.61468  0.03224  0.17111  Biso   1.000  C
  C176     1.0000 0.66038  0.02631  0.19759  Biso   1.000  C
  C177     1.0000 0.67446  0.05929  0.23802  Biso   1.000  C
  C178     1.0000 0.64007  0.09872  0.25203  Biso   1.000  C
  C179     1.0000 0.59358  0.10630  0.22464  Biso   1.000  C
  C180     1.0000 0.58070  0.07239  0.18469  Biso   1.000  C
  C181     1.0000 0.34808  0.63352  0.20339  Biso   1.000  C
  C182     1.0000 0.39940  0.49377  0.37182  Biso   1.000  C
  C183     1.0000 0.38532  0.53224  0.32889  Biso   1.000  C
  C184     1.0000 0.33962  0.52631  0.30241  Biso   1.000  C
  C185     1.0000 0.32554  0.55929  0.26198  Biso   1.000  C
  C186     1.0000 0.35993  0.59872  0.24797  Biso   1.000  C
  C187     1.0000 0.40642  0.60630  0.27536  Biso   1.000  C
  C188     1.0000 0.41930  0.57239  0.31531  Biso   1.000  C
  C189     1.0000 0.15192  0.36648  0.70339  Biso   1.000  C
  C190     1.0000 0.10060  0.50623  0.87182  Biso   1.000  C
  C191     1.0000 0.11468  0.46776  0.82889  Biso   1.000  C
  C192     1.0000 0.16038  0.47369  0.80241  Biso   1.000  C
  C193     1.0000 0.17446  0.44071  0.76198  Biso   1.000  C
  C194     1.0000 0.14007  0.40128  0.74797  Biso   1.000  C
  C195     1.0000 0.09358  0.39370  0.77536  Biso   1.000  C
  C196     1.0000 0.08070  0.42761  0.81531  Biso   1.000  C
  C197     1.0000 0.84808  0.86648  0.79661  Biso   1.000  C
  C198     1.0000 0.89940  0.00623  0.62818  Biso   1.000  C
  C199     1.0000 0.88532  0.96776  0.67111  Biso   1.000  C
  C200     1.0000 0.83962  0.97369  0.69759  Biso   1.000  C
  C201     1.0000 0.82554  0.94071  0.73802  Biso   1.000  C
  C202     1.0000 0.85993  0.90128  0.75203  Biso   1.000  C
  C203     1.0000 0.90642  0.89370  0.72464  Biso   1.000  C
  C204     1.0000 0.91930  0.92761  0.68469  Biso   1.000  C
  C205     1.0000 0.40192  0.54661  0.11648  Biso   1.000  C
  C206     1.0000 0.35060  0.37818  0.25623  Biso   1.000  C
  C207     1.0000 0.36468  0.42111  0.21776  Biso   1.000  C
  C208     1.0000 0.41038  0.44759  0.22369  Biso   1.000  C
  C209     1.0000 0.42446  0.48802  0.19071  Biso   1.000  C
  C210     1.0000 0.39007  0.50203  0.15128  Biso   1.000  C
  C211     1.0000 0.34358  0.47464  0.14370  Biso   1.000  C
  C212     1.0000 0.33070  0.43469  0.17761  Biso   1.000  C
  C213     1.0000 0.09808  0.45339  0.61648  Biso   1.000  C
  C214     1.0000 0.14940  0.62182  0.75623  Biso   1.000  C
  C215     1.0000 0.13532  0.57889  0.71776  Biso   1.000  C
  C216     1.0000 0.08962  0.55241  0.72369  Biso   1.000  C
  C217     1.0000 0.07554  0.51198  0.69071  Biso   1.000  C
  C218     1.0000 0.10993  0.49797  0.65128  Biso   1.000  C
  C219     1.0000 0.15642  0.52536  0.64370  Biso   1.000  C
  C220     1.0000 0.16930  0.56531  0.67761  Biso   1.000  C
  C221     1.0000 0.90192  0.95339  0.88352  Biso   1.000  C
  C222     1.0000 0.85060  0.12182  0.74377  Biso   1.000  C
  C223     1.0000 0.86468  0.07889  0.78224  Biso   1.000  C
  C224     1.0000 0.91038  0.05241  0.77631  Biso   1.000  C
  C225     1.0000 0.92446  0.01198  0.80929  Biso   1.000  C
  C226     1.0000 0.89007  0.99797  0.84872  Biso   1.000  C
  C227     1.0000 0.84358  0.02536  0.85630  Biso   1.000  C
  C228     1.0000 0.83070  0.06531  0.82239  Biso   1.000  C
  C229     1.0000 0.59808  0.04661  0.38352  Biso   1.000  C
  C230     1.0000 0.64940  0.87818  0.24377  Biso   1.000  C
  C231     1.0000 0.63532  0.92111  0.28224  Biso   1.000  C
  C232     1.0000 0.58962  0.94759  0.27631  Biso   1.000  C
  C233     1.0000 0.57554  0.98802  0.30929  Biso   1.000  C
  C234     1.0000 0.60993  0.00203  0.34872  Biso   1.000  C
  C235     1.0000 0.65642  0.97464  0.35630  Biso   1.000  C
  C236     1.0000 0.66930  0.93469  0.32239  Biso   1.000  C
  C237     1.0000 0.04661  0.38352  0.59808  Biso   1.000  C
  C238     1.0000 0.87818  0.24377  0.64940  Biso   1.000  C
  C239     1.0000 0.92111  0.28224  0.63532  Biso   1.000  C
  C240     1.0000 0.94759  0.27631  0.58962  Biso   1.000  C
  C241     1.0000 0.98802  0.30929  0.57554  Biso   1.000  C
  C242     1.0000 0.00203  0.34872  0.60993  Biso   1.000  C
  C243     1.0000 0.97464  0.35630  0.65642  Biso   1.000  C
  C244     1.0000 0.93469  0.32239  0.66930  Biso   1.000  C
  C245     1.0000 0.95339  0.88352  0.90192  Biso   1.000  C
  C246     1.0000 0.12182  0.74377  0.85060  Biso   1.000  C
  C247     1.0000 0.07889  0.78224  0.86468  Biso   1.000  C
  C248     1.0000 0.05241  0.77631  0.91038  Biso   1.000  C
  C249     1.0000 0.01198  0.80929  0.92446  Biso   1.000  C
  C250     1.0000 0.99797  0.84872  0.89007  Biso   1.000  C
  C251     1.0000 0.02536  0.85630  0.84358  Biso   1.000  C
  C252     1.0000 0.06531  0.82239  0.83070  Biso   1.000  C
  C253     1.0000 0.45339  0.61648  0.09808  Biso   1.000  C
  C254     1.0000 0.62182  0.75623  0.14940  Biso   1.000  C
  C255     1.0000 0.57889  0.71776  0.13532  Biso   1.000  C
  C256     1.0000 0.55241  0.72369  0.08962  Biso   1.000  C
  C257     1.0000 0.51198  0.69071  0.07554  Biso   1.000  C
  C258     1.0000 0.49797  0.65128  0.10993  Biso   1.000  C
  C259     1.0000 0.52536  0.64370  0.15642  Biso   1.000  C
  C260     1.0000 0.56531  0.67761  0.16930  Biso   1.000  C
  C261     1.0000 0.54661  0.11648  0.40192  Biso   1.000  C
  C262     1.0000 0.37818  0.25623  0.35060  Biso   1.000  C
  C263     1.0000 0.42111  0.21776  0.36468  Biso   1.000  C
  C264     1.0000 0.44759  0.22369  0.41038  Biso   1.000  C
  C265     1.0000 0.48802  0.19071  0.42446  Biso   1.000  C
  C266     1.0000 0.50203  0.15128  0.39007  Biso   1.000  C
  C267     1.0000 0.47464  0.14370  0.34358  Biso   1.000  C
  C268     1.0000 0.43469  0.17761  0.33070  Biso   1.000  C
  C269     1.0000 0.88352  0.90192  0.95339  Biso   1.000  C
  C270     1.0000 0.74377  0.85060  0.12182  Biso   1.000  C
  C271     1.0000 0.78224  0.86468  0.07889  Biso   1.000  C
  C272     1.0000 0.77631  0.91038  0.05241  Biso   1.000  C
  C273     1.0000 0.80929  0.92446  0.01198  Biso   1.000  C
  C274     1.0000 0.84872  0.89007  0.99797  Biso   1.000  C
  C275     1.0000 0.85630  0.84358  0.02536  Biso   1.000  C
  C276     1.0000 0.82239  0.83070  0.06531  Biso   1.000  C
  C277     1.0000 0.38352  0.59808  0.04661  Biso   1.000  C
  C278     1.0000 0.24377  0.64940  0.87818  Biso   1.000  C
  C279     1.0000 0.28224  0.63532  0.92111  Biso   1.000  C
  C280     1.0000 0.27631  0.58962  0.94759  Biso   1.000  C
  C281     1.0000 0.30929  0.57554  0.98802  Biso   1.000  C
  C282     1.0000 0.34872  0.60993  0.00203  Biso   1.000  C
  C283     1.0000 0.35630  0.65642  0.97464  Biso   1.000  C
  C284     1.0000 0.32239  0.66930  0.93469  Biso   1.000  C
  C285     1.0000 0.11648  0.40192  0.54661  Biso   1.000  C
  C286     1.0000 0.25623  0.35060  0.37818  Biso   1.000  C
  C287     1.0000 0.21776  0.36468  0.42111  Biso   1.000  C
  C288     1.0000 0.22369  0.41038  0.44759  Biso   1.000  C
  C289     1.0000 0.19071  0.42446  0.48802  Biso   1.000  C
  C290     1.0000 0.15128  0.39007  0.50203  Biso   1.000  C
  C291     1.0000 0.14370  0.34358  0.47464  Biso   1.000  C
  C292     1.0000 0.17761  0.33070  0.43469  Biso   1.000  C
  C293     1.0000 0.61648  0.09808  0.45339  Biso   1.000  C
  C294     1.0000 0.75623  0.14940  0.62182  Biso   1.000  C
  C295     1.0000 0.71776  0.13532  0.57889  Biso   1.000  C
  C296     1.0000 0.72369  0.08962  0.55241  Biso   1.000  C
  C297     1.0000 0.69071  0.07554  0.51198  Biso   1.000  C
  C298     1.0000 0.65128  0.10993  0.49797  Biso   1.000  C
  C299     1.0000 0.64370  0.15642  0.52536  Biso   1.000  C
  C300     1.0000 0.67761  0.16930  0.56531  Biso   1.000  C
  C301     1.0000 0.32539  0.69446  0.12166  Biso   1.000  C
  C302     1.0000 0.17461  0.30554  0.62166  Biso   1.000  C
  C303     1.0000 0.67461  0.19446  0.37834  Biso   1.000  C
  C304     1.0000 0.82539  0.80554  0.87834  Biso   1.000  C
  C305     1.0000 0.12166  0.32539  0.69446  Biso   1.000  C
  C306     1.0000 0.62166  0.17461  0.30554  Biso   1.000  C
  C307     1.0000 0.37834  0.67461  0.19446  Biso   1.000  C
  C308     1.0000 0.87834  0.82539  0.80554  Biso   1.000  C
  C309     1.0000 0.69446  0.12166  0.32539  Biso   1.000  C
  C310     1.0000 0.30554  0.62166  0.17461  Biso   1.000  C
  C311     1.0000 0.19446  0.37834  0.67461  Biso   1.000  C
  C312     1.0000 0.80554  0.87834  0.82539  Biso   1.000  C
  C313     1.0000 0.44446  0.57539  0.12834  Biso   1.000  C
  C314     1.0000 0.05554  0.42461  0.62834  Biso   1.000  C
  C315     1.0000 0.94446  0.92461  0.87166  Biso   1.000  C
  C316     1.0000 0.55554  0.07539  0.37166  Biso   1.000  C
  C317     1.0000 0.07539  0.37166  0.55554  Biso   1.000  C
  C318     1.0000 0.92461  0.87166  0.94446  Biso   1.000  C
  C319     1.0000 0.42461  0.62834  0.05554  Biso   1.000  C
  C320     1.0000 0.57539  0.12834  0.44446  Biso   1.000  C
  C321     1.0000 0.87166  0.94446  0.92461  Biso   1.000  C
  C322     1.0000 0.37166  0.55554  0.07539  Biso   1.000  C
  C323     1.0000 0.12834  0.44446  0.57539  Biso   1.000  C
  C324     1.0000 0.62834  0.05554  0.42461  Biso   1.000  C
  C325     1.0000 0.12263  0.62917  0.95571  Biso   1.000  C
  C326     1.0000 0.10113  0.56096  0.00337  Biso   1.000  C
  C327     1.0000 0.37737  0.37083  0.45571  Biso   1.000  C
  C328     1.0000 0.39887  0.43904  0.50337  Biso   1.000  C
  C329     1.0000 0.87737  0.12917  0.54429  Biso   1.000  C
  C330     1.0000 0.89887  0.06096  0.49663  Biso   1.000  C
  C331     1.0000 0.62263  0.87083  0.04429  Biso   1.000  C
  C332     1.0000 0.60113  0.93904  0.99663  Biso   1.000  C
  C333     1.0000 0.95571  0.12263  0.62917  Biso   1.000  C
  C334     1.0000 0.00337  0.10113  0.56096  Biso   1.000  C
  C335     1.0000 0.45571  0.37737  0.37083  Biso   1.000  C
  C336     1.0000 0.50337  0.39887  0.43904  Biso   1.000  C
  C337     1.0000 0.54429  0.87737  0.12917  Biso   1.000  C
  C338     1.0000 0.49663  0.89887  0.06096  Biso   1.000  C
  C339     1.0000 0.04429  0.62263  0.87083  Biso   1.000  C
  C340     1.0000 0.99663  0.60113  0.93904  Biso   1.000  C
  C341     1.0000 0.62917  0.95571  0.12263  Biso   1.000  C
  C342     1.0000 0.56096  0.00337  0.10113  Biso   1.000  C
  C343     1.0000 0.37083  0.45571  0.37737  Biso   1.000  C
  C344     1.0000 0.43904  0.50337  0.39887  Biso   1.000  C
  C345     1.0000 0.12917  0.54429  0.87737  Biso   1.000  C
  C346     1.0000 0.06096  0.49663  0.89887  Biso   1.000  C
  C347     1.0000 0.87083  0.04429  0.62263  Biso   1.000  C
  C348     1.0000 0.93904  0.99663  0.60113  Biso   1.000  C
  C349     1.0000 0.37917  0.37263  0.29429  Biso   1.000  C
  C350     1.0000 0.31096  0.35113  0.24663  Biso   1.000  C
  C351     1.0000 0.12083  0.62737  0.79429  Biso   1.000  C
  C352     1.0000 0.18904  0.64887  0.74663  Biso   1.000  C
  C353     1.0000 0.87917  0.12737  0.70571  Biso   1.000  C
  C354     1.0000 0.81096  0.14887  0.75337  Biso   1.000  C
  C355     1.0000 0.62083  0.87263  0.20571  Biso   1.000  C
  C356     1.0000 0.68904  0.85113  0.25337  Biso   1.000  C
  C357     1.0000 0.87263  0.20571  0.62083  Biso   1.000  C
  C358     1.0000 0.85113  0.25337  0.68904  Biso   1.000  C
  C359     1.0000 0.12737  0.70571  0.87917  Biso   1.000  C
  C360     1.0000 0.14887  0.75337  0.81096  Biso   1.000  C
  C361     1.0000 0.62737  0.79429  0.12083  Biso   1.000  C
  C362     1.0000 0.64887  0.74663  0.18904  Biso   1.000  C
  C363     1.0000 0.37263  0.29429  0.37917  Biso   1.000  C
  C364     1.0000 0.35113  0.24663  0.31096  Biso   1.000  C
  C365     1.0000 0.70571  0.87917  0.12737  Biso   1.000  C
  C366     1.0000 0.75337  0.81096  0.14887  Biso   1.000  C
  C367     1.0000 0.20571  0.62083  0.87263  Biso   1.000  C
  C368     1.0000 0.25337  0.68904  0.85113  Biso   1.000  C
  C369     1.0000 0.29429  0.37917  0.37263  Biso   1.000  C
  C370     1.0000 0.24663  0.31096  0.35113  Biso   1.000  C
  C371     1.0000 0.79429  0.12083  0.62737  Biso   1.000  C
  C372     1.0000 0.74663  0.18904  0.64887  Biso   1.000  C
  O1       1.0000 0.50712  0.11703  0.85821  Biso   1.000  O
  O2       1.0000 0.25706  0.86696  0.35833  Biso   1.000  O
  O3       1.0000 0.00699  0.36709  0.10827  Biso   1.000  O
  O4       1.0000 0.75719  0.61716  0.60840  Biso   1.000  O
  O5       1.0000 0.42708  0.19707  0.77816  Biso   1.000  O
  O6       1.0000 0.33710  0.78692  0.27829  Biso   1.000  O
  O7       1.0000 0.92695  0.28705  0.18831  Biso   1.000  O
  O8       1.0000 0.83723  0.69720  0.68844  Biso   1.000  O
  O9       1.0000 0.58716  0.03699  0.93825  Biso   1.000  O
  O10      1.0000 0.17702  0.94700  0.43837  Biso   1.000  O
  O11      1.0000 0.67714  0.53712  0.52836  Biso   1.000  O
  O12      1.0000 0.08703  0.44713  0.02823  Biso   1.000  O
  O13      1.0000 0.45441  0.00850  0.59940  Biso   1.000  O
  O14      1.0000 0.43140  0.07502  0.65701  Biso   1.000  O
  O15      1.0000 0.56564  0.05431  0.73293  Biso   1.000  O
  O16      1.0000 0.58804  0.98679  0.67732  Biso   1.000  O
  O17      1.0000 0.30977  0.97549  0.09927  Biso   1.000  O
  O18      1.0000 0.33278  0.90897  0.15688  Biso   1.000  O
  O19      1.0000 0.19854  0.92968  0.23280  Biso   1.000  O
  O20      1.0000 0.17614  0.99720  0.17719  Biso   1.000  O
  O21      1.0000 0.95428  0.47562  0.36734  Biso   1.000  O
  O22      1.0000 0.93127  0.40910  0.30972  Biso   1.000  O
  O23      1.0000 0.06551  0.42981  0.23380  Biso   1.000  O
  O24      1.0000 0.08791  0.49733  0.28942  Biso   1.000  O
  O25      1.0000 0.80990  0.50863  0.86721  Biso   1.000  O
  O26      1.0000 0.83291  0.57515  0.80959  Biso   1.000  O
  O27      1.0000 0.69867  0.55444  0.73367  Biso   1.000  O
  O28      1.0000 0.67626  0.48692  0.78929  Biso   1.000  O
  O29      1.0000 0.14853  0.60815  0.30562  Biso   1.000  O
  O30      1.0000 0.21505  0.66577  0.28261  Biso   1.000  O
  O31      1.0000 0.19434  0.74169  0.41685  Biso   1.000  O
  O32      1.0000 0.12682  0.68607  0.43925  Biso   1.000  O
  O33      1.0000 0.11552  0.10803  0.16098  Biso   1.000  O
  O34      1.0000 0.04900  0.16564  0.18399  Biso   1.000  O
  O35      1.0000 0.06971  0.24156  0.04975  Biso   1.000  O
  O36      1.0000 0.13723  0.18595  0.02735  Biso   1.000  O
  O37      1.0000 0.61565  0.37609  0.80549  Biso   1.000  O
  O38      1.0000 0.54913  0.31848  0.78249  Biso   1.000  O
  O39      1.0000 0.56984  0.24256  0.91672  Biso   1.000  O
  O40      1.0000 0.63735  0.29817  0.93913  Biso   1.000  O
  O41      1.0000 0.64866  0.87597  0.66111  Biso   1.000  O
  O42      1.0000 0.71517  0.81835  0.68412  Biso   1.000  O
  O43      1.0000 0.69447  0.74243  0.54988  Biso   1.000  O
  O44      1.0000 0.62695  0.79805  0.52748  Biso   1.000  O
  O45      1.0000 0.74818  0.31438  0.99974  Biso   1.000  O
  O46      1.0000 0.80580  0.29137  0.06626  Biso   1.000  O
  O47      1.0000 0.88172  0.42561  0.04555  Biso   1.000  O
  O48      1.0000 0.82610  0.44801  0.97804  Biso   1.000  O
  O49      1.0000 0.24805  0.16974  0.96673  Biso   1.000  O
  O50      1.0000 0.30567  0.19275  0.90022  Biso   1.000  O
  O51      1.0000 0.38159  0.05851  0.92092  Biso   1.000  O
  O52      1.0000 0.32597  0.03611  0.98844  Biso   1.000  O
  O53      1.0000 0.51612  0.81425  0.46686  Biso   1.000  O
  O54      1.0000 0.45851  0.79124  0.40034  Biso   1.000  O
  O55      1.0000 0.38259  0.92548  0.42105  Biso   1.000  O
  O56      1.0000 0.43820  0.94788  0.48857  Biso   1.000  O
  O57      1.0000 0.01599  0.66987  0.49987  Biso   1.000  O
  O58      1.0000 0.95838  0.69288  0.56639  Biso   1.000  O
  O59      1.0000 0.88246  0.55864  0.54568  Biso   1.000  O
  O60      1.0000 0.93807  0.53624  0.47816  Biso   1.000  O
  O61      1.0000 0.39859  0.06431  0.11727  Biso   1.000  O
  O62      1.0000 0.46511  0.04131  0.05966  Biso   1.000  O
  O63      1.0000 0.44440  0.17554  0.98374  Biso   1.000  O
  O64      1.0000 0.37689  0.19795  0.03935  Biso   1.000  O
  O65      1.0000 0.36558  0.91968  0.61740  Biso   1.000  O
  O66      1.0000 0.29907  0.94268  0.55979  Biso   1.000  O
  O67      1.0000 0.31977  0.80845  0.48387  Biso   1.000  O
  O68      1.0000 0.38729  0.78604  0.53948  Biso   1.000  O
  O69      1.0000 0.86571  0.56444  0.34933  Biso   1.000  O
  O70      1.0000 0.79920  0.54144  0.40695  Biso   1.000  O
  O71      1.0000 0.81990  0.67567  0.48287  Biso   1.000  O
  O72      1.0000 0.88716  0.69808  0.42725  Biso   1.000  O
  O73      1.0000 0.89846  0.41981  0.84920  Biso   1.000  O
  O74      1.0000 0.96498  0.44281  0.90682  Biso   1.000  O
  O75      1.0000 0.94428  0.30858  0.98274  Biso   1.000  O
  O76      1.0000 0.87702  0.28617  0.92712  Biso   1.000  O
  O77      1.0000 0.99799  0.75844  0.41105  Biso   1.000  O
  O78      1.0000 0.05560  0.82495  0.43405  Biso   1.000  O
  O79      1.0000 0.13152  0.80425  0.29982  Biso   1.000  O
  O80      1.0000 0.07591  0.73699  0.27741  Biso   1.000  O
  O81      1.0000 0.49812  0.72568  0.55568  Biso   1.000  O
  O82      1.0000 0.55573  0.65917  0.53268  Biso   1.000  O
  O83      1.0000 0.63165  0.67987  0.66691  Biso   1.000  O
  O84      1.0000 0.57604  0.74713  0.68932  Biso   1.000  O
  O85      1.0000 0.76619  0.22556  0.91092  Biso   1.000  O
  O86      1.0000 0.70857  0.15904  0.93392  Biso   1.000  O
  O87      1.0000 0.63265  0.17974  0.79969  Biso   1.000  O
  O88      1.0000 0.68827  0.24726  0.77728  Biso   1.000  O
  O89      1.0000 0.26606  0.25856  0.05556  Biso   1.000  O
  O90      1.0000 0.20844  0.32508  0.03255  Biso   1.000  O
  O91      1.0000 0.13252  0.30438  0.16678  Biso   1.000  O
  O92      1.0000 0.18814  0.23686  0.18919  Biso   1.000  O
  O93      1.0000 0.70447  0.35809  0.71693  Biso   1.000  O
  O94      1.0000 0.68147  0.41570  0.65041  Biso   1.000  O
  O95      1.0000 0.81570  0.49162  0.67111  Biso   1.000  O
  O96      1.0000 0.83811  0.43601  0.73837  Biso   1.000  O
  O97      1.0000 0.55983  0.85796  0.74968  Biso   1.000  O
  O98      1.0000 0.58284  0.91558  0.81619  Biso   1.000  O
  O99      1.0000 0.44861  0.99150  0.79549  Biso   1.000  O
  O100     1.0000 0.42620  0.93588  0.72823  Biso   1.000  O
  O101     1.0000 0.20434  0.12603  0.24981  Biso   1.000  O
  O102     1.0000 0.18134  0.06842  0.31632  Biso   1.000  O
  O103     1.0000 0.31557  0.99250  0.29562  Biso   1.000  O
  O104     1.0000 0.33798  0.04811  0.22810  Biso   1.000  O
  O105     1.0000 0.05971  0.62616  0.21680  Biso   1.000  O
  O106     1.0000 0.08271  0.56854  0.15028  Biso   1.000  O
  O107     1.0000 0.94848  0.49262  0.17099  Biso   1.000  O
  O108     1.0000 0.92607  0.54824  0.23850  Biso   1.000  O
  O109     1.0000 0.52208  0.98903  0.63437  Biso   1.000  O
  O110     1.0000 0.47658  0.01684  0.62739  Biso   1.000  O
  O111     1.0000 0.46311  0.05705  0.66119  Biso   1.000  O
  O112     1.0000 0.49683  0.07015  0.70100  Biso   1.000  O
  O113     1.0000 0.54245  0.04445  0.70622  Biso   1.000  O
  O114     1.0000 0.55592  0.00401  0.67324  Biso   1.000  O
  O115     1.0000 0.53459  0.94575  0.59953  Biso   1.000  O
  O116     1.0000 0.48232  0.11297  0.73859  Biso   1.000  O
  O117     1.0000 0.24210  0.99496  0.13425  Biso   1.000  O
  O118     1.0000 0.28759  0.96715  0.12726  Biso   1.000  O
  O119     1.0000 0.30107  0.92694  0.16106  Biso   1.000  O
  O120     1.0000 0.26735  0.91385  0.20087  Biso   1.000  O
  O121     1.0000 0.22173  0.93954  0.20609  Biso   1.000  O
  O122     1.0000 0.20825  0.97998  0.17312  Biso   1.000  O
  O123     1.0000 0.22959  0.03824  0.09940  Biso   1.000  O
  O124     1.0000 0.28185  0.87102  0.23872  Biso   1.000  O
  O125     1.0000 0.02195  0.49509  0.33236  Biso   1.000  O
  O126     1.0000 0.97645  0.46728  0.33934  Biso   1.000  O
  O127     1.0000 0.96298  0.42707  0.30554  Biso   1.000  O
  O128     1.0000 0.99670  0.41397  0.26573  Biso   1.000  O
  O129     1.0000 0.04232  0.43967  0.26051  Biso   1.000  O
  O130     1.0000 0.05579  0.48011  0.29349  Biso   1.000  O
  O131     1.0000 0.03446  0.53837  0.36721  Biso   1.000  O
  O132     1.0000 0.98220  0.37115  0.22788  Biso   1.000  O
  O133     1.0000 0.74223  0.48916  0.83223  Biso   1.000  O
  O134     1.0000 0.78772  0.51697  0.83921  Biso   1.000  O
  O135     1.0000 0.80120  0.55718  0.80541  Biso   1.000  O
  O136     1.0000 0.76748  0.57027  0.76560  Biso   1.000  O
  O137     1.0000 0.72186  0.54458  0.76038  Biso   1.000  O
  O138     1.0000 0.70838  0.50414  0.79336  Biso   1.000  O
  O139     1.0000 0.72972  0.44588  0.86708  Biso   1.000  O
  O140     1.0000 0.78198  0.61310  0.72801  Biso   1.000  O
  O141     1.0000 0.12906  0.64313  0.37329  Biso   1.000  O
  O142     1.0000 0.15687  0.63615  0.32780  Biso   1.000  O
  O143     1.0000 0.19708  0.66995  0.31432  Biso   1.000  O
  O144     1.0000 0.21017  0.70976  0.34804  Biso   1.000  O
  O145     1.0000 0.18448  0.71498  0.39366  Biso   1.000  O
  O146     1.0000 0.14404  0.68200  0.40714  Biso   1.000  O
  O147     1.0000 0.08578  0.60828  0.38580  Biso   1.000  O
  O148     1.0000 0.25300  0.74735  0.33354  Biso   1.000  O
  O149     1.0000 0.13499  0.14300  0.09332  Biso   1.000  O
  O150     1.0000 0.10718  0.13602  0.13881  Biso   1.000  O
  O151     1.0000 0.06697  0.16982  0.15228  Biso   1.000  O
  O152     1.0000 0.05387  0.20963  0.11856  Biso   1.000  O
  O153     1.0000 0.07957  0.21485  0.07294  Biso   1.000  O
  O154     1.0000 0.12001  0.18187  0.05947  Biso   1.000  O
  O155     1.0000 0.17827  0.10816  0.08080  Biso   1.000  O
  O156     1.0000 0.01105  0.24748  0.13307  Biso   1.000  O
  O157     1.0000 0.63511  0.34112  0.87316  Biso   1.000  O
  O158     1.0000 0.60731  0.34810  0.82767  Biso   1.000  O
  O159     1.0000 0.56710  0.31430  0.81419  Biso   1.000  O
  O160     1.0000 0.55400  0.27449  0.84791  Biso   1.000  O
  O161     1.0000 0.57970  0.26927  0.89353  Biso   1.000  O
  O162     1.0000 0.62014  0.30225  0.90701  Biso   1.000  O
  O163     1.0000 0.67840  0.37596  0.88567  Biso   1.000  O
  O164     1.0000 0.51118  0.23664  0.83341  Biso   1.000  O
  O165     1.0000 0.62919  0.84099  0.59344  Biso   1.000  O
  O166     1.0000 0.65700  0.84797  0.63894  Biso   1.000  O
  O167     1.0000 0.69721  0.81417  0.65241  Biso   1.000  O
  O168     1.0000 0.71030  0.77436  0.61869  Biso   1.000  O
  O169     1.0000 0.68461  0.76914  0.57307  Biso   1.000  O
  O170     1.0000 0.64417  0.80212  0.55960  Biso   1.000  O
  O171     1.0000 0.58591  0.87584  0.58093  Biso   1.000  O
  O172     1.0000 0.75312  0.73677  0.63319  Biso   1.000  O
  O173     1.0000 0.78316  0.38205  0.98028  Biso   1.000  O
  O174     1.0000 0.77618  0.33655  0.00808  Biso   1.000  O
  O175     1.0000 0.80998  0.32308  0.04829  Biso   1.000  O
  O176     1.0000 0.84979  0.35680  0.06139  Biso   1.000  O
  O177     1.0000 0.85501  0.40242  0.03569  Biso   1.000  O
  O178     1.0000 0.82203  0.41589  0.99525  Biso   1.000  O
  O179     1.0000 0.74831  0.39456  0.93700  Biso   1.000  O
  O180     1.0000 0.88738  0.34230  0.10421  Biso   1.000  O
  O181     1.0000 0.28303  0.10207  0.98620  Biso   1.000  O
  O182     1.0000 0.27605  0.14757  0.95839  Biso   1.000  O
  O183     1.0000 0.30985  0.16104  0.91818  Biso   1.000  O
  O184     1.0000 0.34966  0.12732  0.90509  Biso   1.000  O
  O185     1.0000 0.35488  0.08170  0.93078  Biso   1.000  O
  O186     1.0000 0.32190  0.06823  0.97122  Biso   1.000  O
  O187     1.0000 0.24818  0.08956  0.02948  Biso   1.000  O
  O188     1.0000 0.38751  0.14182  0.86227  Biso   1.000  O
  O189     1.0000 0.48114  0.88192  0.48633  Biso   1.000  O
  O190     1.0000 0.48813  0.83643  0.45852  Biso   1.000  O
  O191     1.0000 0.45433  0.82295  0.41831  Biso   1.000  O
  O192     1.0000 0.41452  0.85667  0.40522  Biso   1.000  O
  O193     1.0000 0.40930  0.90229  0.43091  Biso   1.000  O
  O194     1.0000 0.44227  0.91577  0.47135  Biso   1.000  O
  O195     1.0000 0.51599  0.89443  0.52961  Biso   1.000  O
  O196     1.0000 0.37667  0.84217  0.36239  Biso   1.000  O
  O197     1.0000 0.98102  0.60220  0.48041  Biso   1.000  O
  O198     1.0000 0.98800  0.64769  0.50821  Biso   1.000  O
  O199     1.0000 0.95420  0.66117  0.54842  Biso   1.000  O
  O200     1.0000 0.91439  0.62745  0.56152  Biso   1.000  O
  O201     1.0000 0.90917  0.58183  0.53582  Biso   1.000  O
  O202     1.0000 0.94215  0.56835  0.49538  Biso   1.000  O
  O203     1.0000 0.01586  0.58969  0.43712  Biso   1.000  O
  O204     1.0000 0.87680  0.64195  0.60434  Biso   1.000  O
  O205     1.0000 0.37913  0.13198  0.08229  Biso   1.000  O
  O206     1.0000 0.40694  0.08649  0.08927  Biso   1.000  O
  O207     1.0000 0.44715  0.07302  0.05548  Biso   1.000  O
  O208     1.0000 0.46024  0.10674  0.01567  Biso   1.000  O
  O209     1.0000 0.43454  0.15236  0.01044  Biso   1.000  O
  O210     1.0000 0.39410  0.16583  0.04342  Biso   1.000  O
  O211     1.0000 0.33585  0.14450  0.11714  Biso   1.000  O
  O212     1.0000 0.50306  0.09223  0.97782  Biso   1.000  O
  O213     1.0000 0.38505  0.85201  0.58242  Biso   1.000  O
  O214     1.0000 0.35724  0.89750  0.58940  Biso   1.000  O
  O215     1.0000 0.31703  0.91097  0.55560  Biso   1.000  O
  O216     1.0000 0.30394  0.87726  0.51579  Biso   1.000  O
  O217     1.0000 0.32964  0.83163  0.51057  Biso   1.000  O
  O218     1.0000 0.37008  0.81816  0.54355  Biso   1.000  O
  O219     1.0000 0.42833  0.83950  0.61727  Biso   1.000  O
  O220     1.0000 0.26112  0.89176  0.47794  Biso   1.000  O
  O221     1.0000 0.88492  0.63211  0.38431  Biso   1.000  O
  O222     1.0000 0.85737  0.58662  0.37733  Biso   1.000  O
  O223     1.0000 0.81716  0.57315  0.41113  Biso   1.000  O
  O224     1.0000 0.80407  0.60686  0.45094  Biso   1.000  O
  O225     1.0000 0.82976  0.65249  0.45616  Biso   1.000  O
  O226     1.0000 0.87020  0.66596  0.42318  Biso   1.000  O
  O227     1.0000 0.92820  0.64462  0.34946  Biso   1.000  O
  O228     1.0000 0.76125  0.59236  0.48879  Biso   1.000  O
  O229     1.0000 0.87926  0.35214  0.88418  Biso   1.000  O
  O230     1.0000 0.90681  0.39763  0.87720  Biso   1.000  O
  O231     1.0000 0.94702  0.41110  0.91100  Biso   1.000  O
  O232     1.0000 0.96011  0.37739  0.95081  Biso   1.000  O
  O233     1.0000 0.93441  0.33176  0.95603  Biso   1.000  O
  O234     1.0000 0.89397  0.31829  0.92305  Biso   1.000  O
  O235     1.0000 0.83598  0.33963  0.84933  Biso   1.000  O
  O236     1.0000 0.00293  0.39189  0.98866  Biso   1.000  O
  O237     1.0000 0.03297  0.73923  0.34338  Biso   1.000  O
  O238     1.0000 0.02599  0.76678  0.38887  Biso   1.000  O
  O239     1.0000 0.05979  0.80699  0.40235  Biso   1.000  O
  O240     1.0000 0.09960  0.82008  0.36863  Biso   1.000  O
  O241     1.0000 0.10482  0.79438  0.32300  Biso   1.000  O
  O242     1.0000 0.07184  0.75394  0.30953  Biso   1.000  O
  O243     1.0000 0.99812  0.69595  0.33087  Biso   1.000  O
  O244     1.0000 0.13745  0.86290  0.38313  Biso   1.000  O
  O245     1.0000 0.53310  0.74489  0.62335  Biso   1.000  O
  O246     1.0000 0.52612  0.71734  0.57786  Biso   1.000  O
  O247     1.0000 0.55991  0.67713  0.56439  Biso   1.000  O
  O248     1.0000 0.59973  0.66404  0.59811  Biso   1.000  O
  O249     1.0000 0.60495  0.68974  0.64373  Biso   1.000  O
  O250     1.0000 0.57197  0.73018  0.65720  Biso   1.000  O
  O251     1.0000 0.49825  0.78817  0.63587  Biso   1.000  O
  O252     1.0000 0.63757  0.62122  0.58360  Biso   1.000  O
  O253     1.0000 0.73121  0.24502  0.84325  Biso   1.000  O
  O254     1.0000 0.73819  0.21721  0.88874  Biso   1.000  O
  O255     1.0000 0.70439  0.17700  0.90222  Biso   1.000  O
  O256     1.0000 0.66458  0.16391  0.86850  Biso   1.000  O
  O257     1.0000 0.65936  0.18961  0.82288  Biso   1.000  O
  O258     1.0000 0.69234  0.23005  0.80940  Biso   1.000  O
  O259     1.0000 0.76606  0.28830  0.83074  Biso   1.000  O
  O260     1.0000 0.62673  0.12109  0.88300  Biso   1.000  O
  O261     1.0000 0.23108  0.23910  0.12322  Biso   1.000  O
  O262     1.0000 0.23806  0.26691  0.07773  Biso   1.000  O
  O263     1.0000 0.20426  0.30712  0.06426  Biso   1.000  O
  O264     1.0000 0.16445  0.32021  0.09798  Biso   1.000  O
  O265     1.0000 0.15923  0.29451  0.14360  Biso   1.000  O
  O266     1.0000 0.19221  0.25407  0.15707  Biso   1.000  O
  O267     1.0000 0.26593  0.19582  0.13574  Biso   1.000  O
  O268     1.0000 0.12660  0.36303  0.08347  Biso   1.000  O
  O269     1.0000 0.77214  0.39307  0.73613  Biso   1.000  O
  O270     1.0000 0.72665  0.38609  0.70858  Biso   1.000  O
  O271     1.0000 0.71317  0.41989  0.66837  Biso   1.000  O
  O272     1.0000 0.74689  0.45970  0.65528  Biso   1.000  O
  O273     1.0000 0.79251  0.46492  0.68098  Biso   1.000  O
  O274     1.0000 0.80599  0.43194  0.72142  Biso   1.000  O
  O275     1.0000 0.78465  0.35822  0.77941  Biso   1.000  O
  O276     1.0000 0.73239  0.49755  0.61246  Biso   1.000  O
  O277     1.0000 0.49217  0.89294  0.73047  Biso   1.000  O
  O278     1.0000 0.53766  0.88596  0.75802  Biso   1.000  O
  O279     1.0000 0.55113  0.91976  0.79823  Biso   1.000  O
  O280     1.0000 0.51741  0.95957  0.81132  Biso   1.000  O
  O281     1.0000 0.47179  0.96479  0.78563  Biso   1.000  O
  O282     1.0000 0.45832  0.93181  0.74519  Biso   1.000  O
  O283     1.0000 0.47965  0.85809  0.68719  Biso   1.000  O
  O284     1.0000 0.53192  0.99742  0.85414  Biso   1.000  O
  O285     1.0000 0.27201  0.09105  0.23034  Biso   1.000  O
  O286     1.0000 0.22652  0.09803  0.25815  Biso   1.000  O
  O287     1.0000 0.21305  0.06423  0.29836  Biso   1.000  O
  O288     1.0000 0.24676  0.02442  0.31145  Biso   1.000  O
  O289     1.0000 0.29239  0.01920  0.28576  Biso   1.000  O
  O290     1.0000 0.30586  0.05218  0.24531  Biso   1.000  O
  O291     1.0000 0.28452  0.12590  0.18706  Biso   1.000  O
  O292     1.0000 0.23226  0.98657  0.35427  Biso   1.000  O
  O293     1.0000 0.99204  0.59118  0.23626  Biso   1.000  O
  O294     1.0000 0.03753  0.59816  0.20846  Biso   1.000  O
  O295     1.0000 0.05100  0.56436  0.16824  Biso   1.000  O
  O296     1.0000 0.01729  0.52455  0.15515  Biso   1.000  O
  O297     1.0000 0.97166  0.51933  0.18085  Biso   1.000  O
  O298     1.0000 0.95819  0.55231  0.22129  Biso   1.000  O
  O299     1.0000 0.97953  0.62603  0.27954  Biso   1.000  O
  O300     1.0000 0.03179  0.48670  0.11233  Biso   1.000  O
  O301     1.0000 0.57682  0.91673  0.61174  Biso   1.000  O
  O302     1.0000 0.18736  0.06727  0.11161  Biso   1.000  O
  O303     1.0000 0.07669  0.56739  0.35499  Biso   1.000  O
  O304     1.0000 0.68749  0.41686  0.85486  Biso   1.000  O
  O305     1.0000 0.05676  0.62050  0.42803  Biso   1.000  O
  O306     1.0000 0.20729  0.12037  0.03857  Biso   1.000  O
  O307     1.0000 0.70742  0.36375  0.92790  Biso   1.000  O
  O308     1.0000 0.55688  0.86362  0.53870  Biso   1.000  O
  O309     1.0000 0.76053  0.43679  0.90797  Biso   1.000  O
  O310     1.0000 0.26040  0.04733  0.05851  Biso   1.000  O
  O311     1.0000 0.50378  0.93666  0.55864  Biso   1.000  O
  O312     1.0000 0.00365  0.54746  0.40810  Biso   1.000  O
  O313     1.0000 0.30682  0.18673  0.10493  Biso   1.000  O
  O314     1.0000 0.45736  0.79727  0.60506  Biso   1.000  O
  O315     1.0000 0.95723  0.68685  0.36167  Biso   1.000  O
  O316     1.0000 0.80695  0.29739  0.86155  Biso   1.000  O
  O317     1.0000 0.01033  0.66692  0.28864  Biso   1.000  O
  O318     1.0000 0.51046  0.81720  0.67810  Biso   1.000  O
  O319     1.0000 0.75384  0.31733  0.78851  Biso   1.000  O
  O320     1.0000 0.25372  0.16679  0.17797  Biso   1.000  O
  O321     1.0000 0.82688  0.37043  0.80844  Biso   1.000  O
  O322     1.0000 0.43742  0.87030  0.65816  Biso   1.000  O
  O323     1.0000 0.32675  0.11369  0.15803  Biso   1.000  O
  O324     1.0000 0.93729  0.61382  0.30857  Biso   1.000  O
  O325     1.0000 0.51132  0.11946  0.77714  Biso   1.000  O
  O326     1.0000 0.44323  0.14053  0.73015  Biso   1.000  O
  O327     1.0000 0.25286  0.86453  0.27727  Biso   1.000  O
  O328     1.0000 0.32094  0.84346  0.23002  Biso   1.000  O
  O329     1.0000 0.01119  0.36466  0.18933  Biso   1.000  O
  O330     1.0000 0.94311  0.34359  0.23658  Biso   1.000  O
  O331     1.0000 0.75298  0.61959  0.68946  Biso   1.000  O
  O332     1.0000 0.82107  0.64066  0.73645  Biso   1.000  O
  O333     1.0000 0.25949  0.78590  0.36253  Biso   1.000  O
  O334     1.0000 0.28056  0.73891  0.29445  Biso   1.000  O
  O335     1.0000 0.00456  0.28603  0.10407  Biso   1.000  O
  O336     1.0000 0.98349  0.23878  0.17216  Biso   1.000  O
  O337     1.0000 0.50469  0.19809  0.86241  Biso   1.000  O
  O338     1.0000 0.48362  0.24534  0.79432  Biso   1.000  O
  O339     1.0000 0.75962  0.69822  0.60420  Biso   1.000  O
  O340     1.0000 0.78069  0.74521  0.67228  Biso   1.000  O
  O341     1.0000 0.92593  0.37129  0.11070  Biso   1.000  O
  O342     1.0000 0.87894  0.30321  0.13178  Biso   1.000  O
  O343     1.0000 0.42606  0.11283  0.85577  Biso   1.000  O
  O344     1.0000 0.37881  0.18091  0.83470  Biso   1.000  O
  O345     1.0000 0.33812  0.87116  0.35590  Biso   1.000  O
  O346     1.0000 0.38537  0.80308  0.33483  Biso   1.000  O
  O347     1.0000 0.83825  0.61296  0.61083  Biso   1.000  O
  O348     1.0000 0.88524  0.68104  0.63190  Biso   1.000  O
  O349     1.0000 0.50955  0.12123  0.93927  Biso   1.000  O
  O350     1.0000 0.53063  0.05314  0.98652  Biso   1.000  O
  O351     1.0000 0.25463  0.86276  0.43939  Biso   1.000  O
  O352     1.0000 0.23355  0.93085  0.48665  Biso   1.000  O
  O353     1.0000 0.75475  0.62136  0.52734  Biso   1.000  O
  O354     1.0000 0.73368  0.55327  0.48009  Biso   1.000  O
  O355     1.0000 0.00942  0.36289  0.02721  Biso   1.000  O
  O356     1.0000 0.03050  0.43098  0.97996  Biso   1.000  O
  O357     1.0000 0.17600  0.86939  0.35413  Biso   1.000  O
  O358     1.0000 0.12874  0.89047  0.42222  Biso   1.000  O
  O359     1.0000 0.67612  0.61473  0.61260  Biso   1.000  O
  O360     1.0000 0.62887  0.59365  0.54451  Biso   1.000  O
  O361     1.0000 0.58818  0.11460  0.85400  Biso   1.000  O
  O362     1.0000 0.63543  0.09352  0.92209  Biso   1.000  O
  O363     1.0000 0.08805  0.36952  0.11247  Biso   1.000  O
  O364     1.0000 0.13531  0.39060  0.04438  Biso   1.000  O
  O365     1.0000 0.76139  0.53610  0.60597  Biso   1.000  O
  O366     1.0000 0.69330  0.48884  0.58489  Biso   1.000  O
  O367     1.0000 0.50292  0.03597  0.86064  Biso   1.000  O
  O368     1.0000 0.57101  0.98871  0.88171  Biso   1.000  O
  O369     1.0000 0.26126  0.94802  0.36076  Biso   1.000  O
  O370     1.0000 0.19317  0.99528  0.38184  Biso   1.000  O
  O371     1.0000 0.00279  0.44815  0.10584  Biso   1.000  O
