data_image0
_cell_length_a       34.346
_cell_length_b       34.346
_cell_length_c       34.346
_cell_angle_alpha    90
_cell_angle_beta     90
_cell_angle_gamma    90

_symmetry_space_group_name_H-M    "P 1"
_symmetry_int_tables_number       1

loop_
  _symmetry_equiv_pos_as_xyz
  'x, y, z'

loop_
  _atom_site_label
  _atom_site_occupancy
  _atom_site_fract_x
  _atom_site_fract_y
  _atom_site_fract_z
  _atom_site_thermal_displace_type
  _atom_site_B_iso_or_equiv
  _atom_site_type_symbol
  Cu1      1.0000 0.50000  0.83363  0.00000  Biso   1.000  Cu
  Cu2      1.0000 0.00000  0.50000  0.83363  Biso   1.000  Cu
  Cu3      1.0000 0.00000  0.50000  0.16637  Biso   1.000  Cu
  Cu4      1.0000 0.00000  0.50000  0.24283  Biso   1.000  Cu
  Cu5      1.0000 0.75717  0.00000  0.50000  Biso   1.000  Cu
  Cu6      1.0000 0.24283  0.00000  0.50000  Biso   1.000  Cu
  Cu7      1.0000 0.00000  0.50000  0.75717  Biso   1.000  Cu
  Cu8      1.0000 0.83363  0.00000  0.50000  Biso   1.000  Cu
  Cu9      1.0000 0.50000  0.24283  0.00000  Biso   1.000  Cu
  Cu10     1.0000 0.50000  0.75717  0.00000  Biso   1.000  Cu
  Cu11     1.0000 0.50000  0.16637  0.00000  Biso   1.000  Cu
  Cu12     1.0000 0.16637  0.00000  0.50000  Biso   1.000  Cu
  H1       1.0000 0.26560  0.11760  0.64930  Biso   1.000  H
  H2       1.0000 0.22630  0.26160  0.83170  Biso   1.000  H
  H3       1.0000 0.35070  0.26560  0.88240  Biso   1.000  H
  H4       1.0000 0.59060  0.14730  0.08630  Biso   1.000  H
  H5       1.0000 0.26160  0.16830  0.77370  Biso   1.000  H
  H6       1.0000 0.26430  0.92340  0.59520  Biso   1.000  H
  H7       1.0000 0.12730  0.64470  0.85140  Biso   1.000  H
  H8       1.0000 0.83170  0.22630  0.73840  Biso   1.000  H
  H9       1.0000 0.40480  0.73570  0.07660  Biso   1.000  H
  H10      1.0000 0.91370  0.59060  0.14730  Biso   1.000  H
  H11      1.0000 0.07660  0.40480  0.73570  Biso   1.000  H
  H12      1.0000 0.85270  0.08630  0.40940  Biso   1.000  H
  H13      1.0000 0.26160  0.16830  0.22630  Biso   1.000  H
  H14      1.0000 0.85270  0.91370  0.59060  Biso   1.000  H
  H15      1.0000 0.40940  0.14730  0.08630  Biso   1.000  H
  H16      1.0000 0.59520  0.26430  0.92340  Biso   1.000  H
  H17      1.0000 0.11760  0.64930  0.26560  Biso   1.000  H
  H18      1.0000 0.87270  0.64470  0.85140  Biso   1.000  H
  H19      1.0000 0.77370  0.73840  0.83170  Biso   1.000  H
  H20      1.0000 0.64470  0.14860  0.87270  Biso   1.000  H
  H21      1.0000 0.59520  0.26430  0.07660  Biso   1.000  H
  H22      1.0000 0.07660  0.59520  0.73570  Biso   1.000  H
  H23      1.0000 0.83170  0.77370  0.73840  Biso   1.000  H
  H24      1.0000 0.07660  0.40480  0.26430  Biso   1.000  H
  H25      1.0000 0.73840  0.16830  0.77370  Biso   1.000  H
  H26      1.0000 0.87270  0.35530  0.85140  Biso   1.000  H
  H27      1.0000 0.35530  0.85140  0.87270  Biso   1.000  H
  H28      1.0000 0.16830  0.77370  0.26160  Biso   1.000  H
  H29      1.0000 0.14730  0.91370  0.59060  Biso   1.000  H
  H30      1.0000 0.85270  0.08630  0.59060  Biso   1.000  H
  H31      1.0000 0.64470  0.85140  0.12730  Biso   1.000  H
  H32      1.0000 0.14730  0.08630  0.40940  Biso   1.000  H
  H33      1.0000 0.73840  0.83170  0.22630  Biso   1.000  H
  H34      1.0000 0.26160  0.83170  0.77370  Biso   1.000  H
  H35      1.0000 0.40940  0.14730  0.91370  Biso   1.000  H
  H36      1.0000 0.16830  0.22630  0.26160  Biso   1.000  H
  H37      1.0000 0.92340  0.59520  0.73570  Biso   1.000  H
  H38      1.0000 0.26560  0.88240  0.64930  Biso   1.000  H
  H39      1.0000 0.22630  0.73840  0.16830  Biso   1.000  H
  H40      1.0000 0.40480  0.26430  0.07660  Biso   1.000  H
  H41      1.0000 0.35530  0.14860  0.87270  Biso   1.000  H
  H42      1.0000 0.85140  0.12730  0.35530  Biso   1.000  H
  H43      1.0000 0.35070  0.26560  0.11760  Biso   1.000  H
  H44      1.0000 0.64470  0.85140  0.87270  Biso   1.000  H
  H45      1.0000 0.85140  0.87270  0.64470  Biso   1.000  H
  H46      1.0000 0.07660  0.59520  0.26430  Biso   1.000  H
  H47      1.0000 0.88240  0.35070  0.26560  Biso   1.000  H
  H48      1.0000 0.92340  0.40480  0.73570  Biso   1.000  H
  H49      1.0000 0.64930  0.73440  0.88240  Biso   1.000  H
  H50      1.0000 0.73570  0.07660  0.59520  Biso   1.000  H
  H51      1.0000 0.73440  0.88240  0.64930  Biso   1.000  H
  H52      1.0000 0.73570  0.92340  0.40480  Biso   1.000  H
  H53      1.0000 0.92340  0.40480  0.26430  Biso   1.000  H
  H54      1.0000 0.85270  0.91370  0.40940  Biso   1.000  H
  H55      1.0000 0.59060  0.14730  0.91370  Biso   1.000  H
  H56      1.0000 0.59060  0.85270  0.91370  Biso   1.000  H
  H57      1.0000 0.12730  0.35530  0.85140  Biso   1.000  H
  H58      1.0000 0.14730  0.91370  0.40940  Biso   1.000  H
  H59      1.0000 0.08630  0.40940  0.85270  Biso   1.000  H
  H60      1.0000 0.08630  0.40940  0.14730  Biso   1.000  H
  H61      1.0000 0.26430  0.92340  0.40480  Biso   1.000  H
  H62      1.0000 0.40480  0.26430  0.92340  Biso   1.000  H
  H63      1.0000 0.59520  0.73570  0.07660  Biso   1.000  H
  H64      1.0000 0.11760  0.35070  0.26560  Biso   1.000  H
  H65      1.0000 0.26430  0.07660  0.40480  Biso   1.000  H
  H66      1.0000 0.64930  0.26560  0.88240  Biso   1.000  H
  H67      1.0000 0.77370  0.73840  0.16830  Biso   1.000  H
  H68      1.0000 0.14860  0.87270  0.64470  Biso   1.000  H
  H69      1.0000 0.73440  0.11760  0.64930  Biso   1.000  H
  H70      1.0000 0.26560  0.11760  0.35070  Biso   1.000  H
  H71      1.0000 0.59520  0.73570  0.92340  Biso   1.000  H
  H72      1.0000 0.87270  0.35530  0.14860  Biso   1.000  H
  H73      1.0000 0.64470  0.14860  0.12730  Biso   1.000  H
  H74      1.0000 0.88240  0.64930  0.26560  Biso   1.000  H
  H75      1.0000 0.64930  0.26560  0.11760  Biso   1.000  H
  H76      1.0000 0.83170  0.77370  0.26160  Biso   1.000  H
  H77      1.0000 0.88240  0.64930  0.73440  Biso   1.000  H
  H78      1.0000 0.14860  0.12730  0.64470  Biso   1.000  H
  H79      1.0000 0.35070  0.73440  0.88240  Biso   1.000  H
  H80      1.0000 0.77370  0.26160  0.83170  Biso   1.000  H
  H81      1.0000 0.88240  0.35070  0.73440  Biso   1.000  H
  H82      1.0000 0.40940  0.85270  0.91370  Biso   1.000  H
  H83      1.0000 0.08630  0.59060  0.85270  Biso   1.000  H
  H84      1.0000 0.40940  0.85270  0.08630  Biso   1.000  H
  H85      1.0000 0.92340  0.59520  0.26430  Biso   1.000  H
  H86      1.0000 0.26430  0.07660  0.59520  Biso   1.000  H
  H87      1.0000 0.16830  0.22630  0.73840  Biso   1.000  H
  H88      1.0000 0.91370  0.40940  0.85270  Biso   1.000  H
  H89      1.0000 0.91370  0.40940  0.14730  Biso   1.000  H
  H90      1.0000 0.26160  0.83170  0.22630  Biso   1.000  H
  H91      1.0000 0.35530  0.14860  0.12730  Biso   1.000  H
  H92      1.0000 0.11760  0.35070  0.73440  Biso   1.000  H
  H93      1.0000 0.59060  0.85270  0.08630  Biso   1.000  H
  H94      1.0000 0.12730  0.64470  0.14860  Biso   1.000  H
  H95      1.0000 0.73570  0.92340  0.59520  Biso   1.000  H
  H96      1.0000 0.73840  0.16830  0.22630  Biso   1.000  H
  H97      1.0000 0.73570  0.07660  0.40480  Biso   1.000  H
  H98      1.0000 0.87270  0.64470  0.14860  Biso   1.000  H
  H99      1.0000 0.14730  0.08630  0.59060  Biso   1.000  H
  H100     1.0000 0.85140  0.87270  0.35530  Biso   1.000  H
  H101     1.0000 0.85140  0.12730  0.64470  Biso   1.000  H
  H102     1.0000 0.22630  0.73840  0.83170  Biso   1.000  H
  H103     1.0000 0.08630  0.59060  0.14730  Biso   1.000  H
  H104     1.0000 0.35530  0.85140  0.12730  Biso   1.000  H
  H105     1.0000 0.12730  0.35530  0.14860  Biso   1.000  H
  H106     1.0000 0.26560  0.88240  0.35070  Biso   1.000  H
  H107     1.0000 0.14860  0.12730  0.35530  Biso   1.000  H
  H108     1.0000 0.11760  0.64930  0.73440  Biso   1.000  H
  H109     1.0000 0.73840  0.83170  0.77370  Biso   1.000  H
  H110     1.0000 0.73440  0.88240  0.35070  Biso   1.000  H
  H111     1.0000 0.77370  0.26160  0.16830  Biso   1.000  H
  H112     1.0000 0.40480  0.73570  0.92340  Biso   1.000  H
  H113     1.0000 0.73440  0.11760  0.35070  Biso   1.000  H
  H114     1.0000 0.64930  0.73440  0.11760  Biso   1.000  H
  H115     1.0000 0.22630  0.26160  0.16830  Biso   1.000  H
  H116     1.0000 0.83170  0.22630  0.26160  Biso   1.000  H
  H117     1.0000 0.14860  0.87270  0.35530  Biso   1.000  H
  H118     1.0000 0.35070  0.73440  0.11760  Biso   1.000  H
  H119     1.0000 0.91370  0.59060  0.85270  Biso   1.000  H
  H120     1.0000 0.16830  0.77370  0.73840  Biso   1.000  H
  C1       1.0000 0.77600  0.75464  0.19020  Biso   1.000  C
  C2       1.0000 0.44801  0.20387  0.05097  Biso   1.000  C
  C3       1.0000 0.22400  0.24536  0.19020  Biso   1.000  C
  C4       1.0000 0.74747  0.21466  0.80543  Biso   1.000  C
  C5       1.0000 0.65218  0.20719  0.12638  Biso   1.000  C
  C6       1.0000 0.17191  0.11705  0.36531  Biso   1.000  C
  C7       1.0000 0.17238  0.71603  0.21218  Biso   1.000  C
  C8       1.0000 0.82884  0.09261  0.39757  Biso   1.000  C
  C9       1.0000 0.84815  0.31050  0.20644  Biso   1.000  C
  C10      1.0000 0.88873  0.63743  0.24172  Biso   1.000  C
  C11      1.0000 0.28397  0.78782  0.82762  Biso   1.000  C
  C12      1.0000 0.07750  0.41232  0.79432  Biso   1.000  C
  C13      1.0000 0.78534  0.80543  0.25253  Biso   1.000  C
  C14      1.0000 0.34782  0.79281  0.12638  Biso   1.000  C
  C15      1.0000 0.17116  0.09261  0.39757  Biso   1.000  C
  C16      1.0000 0.79613  0.05097  0.55199  Biso   1.000  C
  C17      1.0000 0.79356  0.84815  0.31050  Biso   1.000  C
  C18      1.0000 0.11127  0.63743  0.75828  Biso   1.000  C
  C19      1.0000 0.19457  0.74747  0.21466  Biso   1.000  C
  C20      1.0000 0.20387  0.94903  0.44801  Biso   1.000  C
  C21      1.0000 0.74747  0.78534  0.80543  Biso   1.000  C
  C22      1.0000 0.80543  0.74747  0.21466  Biso   1.000  C
  C23      1.0000 0.20387  0.05097  0.44801  Biso   1.000  C
  C24      1.0000 0.21218  0.82762  0.71603  Biso   1.000  C
  C25      1.0000 0.82809  0.11705  0.36531  Biso   1.000  C
  C26      1.0000 0.39757  0.17116  0.09261  Biso   1.000  C
  C27      1.0000 0.31050  0.20644  0.84815  Biso   1.000  C
  C28      1.0000 0.39483  0.24096  0.08684  Biso   1.000  C
  C29      1.0000 0.11127  0.63743  0.24172  Biso   1.000  C
  C30      1.0000 0.87362  0.65218  0.79281  Biso   1.000  C
  C31      1.0000 0.20568  0.07750  0.58768  Biso   1.000  C
  C32      1.0000 0.68950  0.20644  0.84815  Biso   1.000  C
  C33      1.0000 0.94903  0.55199  0.20387  Biso   1.000  C
  C34      1.0000 0.91316  0.60517  0.75904  Biso   1.000  C
  C35      1.0000 0.20644  0.15185  0.68950  Biso   1.000  C
  C36      1.0000 0.63743  0.75828  0.88873  Biso   1.000  C
  C37      1.0000 0.75464  0.80980  0.77600  Biso   1.000  C
  C38      1.0000 0.92250  0.41232  0.79432  Biso   1.000  C
  C39      1.0000 0.24172  0.11127  0.63743  Biso   1.000  C
  C40      1.0000 0.39483  0.75904  0.08684  Biso   1.000  C
  C41      1.0000 0.88295  0.36531  0.82809  Biso   1.000  C
  C42      1.0000 0.25253  0.78534  0.80543  Biso   1.000  C
  C43      1.0000 0.11705  0.36531  0.82809  Biso   1.000  C
  C44      1.0000 0.58768  0.79432  0.07750  Biso   1.000  C
  C45      1.0000 0.90739  0.60243  0.82884  Biso   1.000  C
  C46      1.0000 0.75464  0.80980  0.22400  Biso   1.000  C
  C47      1.0000 0.28397  0.21218  0.82762  Biso   1.000  C
  C48      1.0000 0.88873  0.36257  0.75828  Biso   1.000  C
  C49      1.0000 0.19457  0.25253  0.78534  Biso   1.000  C
  C50      1.0000 0.12638  0.34782  0.79281  Biso   1.000  C
  C51      1.0000 0.39757  0.17116  0.90739  Biso   1.000  C
  C52      1.0000 0.63469  0.82809  0.88295  Biso   1.000  C
  C53      1.0000 0.41232  0.79432  0.92250  Biso   1.000  C
  C54      1.0000 0.07750  0.41232  0.20568  Biso   1.000  C
  C55      1.0000 0.60517  0.75904  0.08684  Biso   1.000  C
  C56      1.0000 0.60517  0.24096  0.08684  Biso   1.000  C
  C57      1.0000 0.24172  0.88873  0.63743  Biso   1.000  C
  C58      1.0000 0.60243  0.17116  0.90739  Biso   1.000  C
  C59      1.0000 0.36257  0.75828  0.88873  Biso   1.000  C
  C60      1.0000 0.77600  0.75464  0.80980  Biso   1.000  C
  C61      1.0000 0.65218  0.79281  0.12638  Biso   1.000  C
  C62      1.0000 0.90739  0.39757  0.82884  Biso   1.000  C
  C63      1.0000 0.11705  0.36531  0.17191  Biso   1.000  C
  C64      1.0000 0.84815  0.68950  0.20644  Biso   1.000  C
  C65      1.0000 0.28397  0.78782  0.17238  Biso   1.000  C
  C66      1.0000 0.63469  0.17191  0.88295  Biso   1.000  C
  C67      1.0000 0.60517  0.24096  0.91316  Biso   1.000  C
  C68      1.0000 0.15185  0.31050  0.79356  Biso   1.000  C
  C69      1.0000 0.71603  0.78782  0.82762  Biso   1.000  C
  C70      1.0000 0.20568  0.92250  0.58768  Biso   1.000  C
  C71      1.0000 0.44801  0.79613  0.94903  Biso   1.000  C
  C72      1.0000 0.05097  0.44801  0.20387  Biso   1.000  C
  C73      1.0000 0.75904  0.08684  0.60517  Biso   1.000  C
  C74      1.0000 0.63743  0.24172  0.88873  Biso   1.000  C
  C75      1.0000 0.19020  0.77600  0.24536  Biso   1.000  C
  C76      1.0000 0.19020  0.22400  0.24536  Biso   1.000  C
  C77      1.0000 0.74747  0.78534  0.19457  Biso   1.000  C
  C78      1.0000 0.60243  0.82884  0.90739  Biso   1.000  C
  C79      1.0000 0.41232  0.20568  0.92250  Biso   1.000  C
  C80      1.0000 0.60517  0.75904  0.91316  Biso   1.000  C
  C81      1.0000 0.36257  0.24172  0.88873  Biso   1.000  C
  C82      1.0000 0.31050  0.79356  0.15185  Biso   1.000  C
  C83      1.0000 0.58768  0.20568  0.07750  Biso   1.000  C
  C84      1.0000 0.21466  0.19457  0.25253  Biso   1.000  C
  C85      1.0000 0.20719  0.12638  0.34782  Biso   1.000  C
  C86      1.0000 0.80543  0.25253  0.21466  Biso   1.000  C
  C87      1.0000 0.77600  0.24536  0.80980  Biso   1.000  C
  C88      1.0000 0.94903  0.44801  0.79613  Biso   1.000  C
  C89      1.0000 0.09261  0.39757  0.82884  Biso   1.000  C
  C90      1.0000 0.79356  0.84815  0.68950  Biso   1.000  C
  C91      1.0000 0.39483  0.75904  0.91316  Biso   1.000  C
  C92      1.0000 0.20644  0.15185  0.31050  Biso   1.000  C
  C93      1.0000 0.78782  0.17238  0.71603  Biso   1.000  C
  C94      1.0000 0.05097  0.44801  0.79613  Biso   1.000  C
  C95      1.0000 0.60243  0.17116  0.09261  Biso   1.000  C
  C96      1.0000 0.09261  0.60243  0.82884  Biso   1.000  C
  C97      1.0000 0.75904  0.08684  0.39483  Biso   1.000  C
  C98      1.0000 0.58768  0.79432  0.92250  Biso   1.000  C
  C99      1.0000 0.87362  0.65218  0.20719  Biso   1.000  C
  C100     1.0000 0.44801  0.20387  0.94903  Biso   1.000  C
  C101     1.0000 0.55199  0.20387  0.05097  Biso   1.000  C
  C102     1.0000 0.20568  0.92250  0.41232  Biso   1.000  C
  C103     1.0000 0.17238  0.28397  0.21218  Biso   1.000  C
  C104     1.0000 0.80543  0.25253  0.78534  Biso   1.000  C
  C105     1.0000 0.20387  0.94903  0.55199  Biso   1.000  C
  C106     1.0000 0.79613  0.94903  0.55199  Biso   1.000  C
  C107     1.0000 0.87362  0.34782  0.20719  Biso   1.000  C
  C108     1.0000 0.17191  0.11705  0.63469  Biso   1.000  C
  C109     1.0000 0.28397  0.21218  0.17238  Biso   1.000  C
  C110     1.0000 0.41232  0.79432  0.07750  Biso   1.000  C
  C111     1.0000 0.19020  0.22400  0.75464  Biso   1.000  C
  C112     1.0000 0.75828  0.88873  0.36257  Biso   1.000  C
  C113     1.0000 0.82762  0.28397  0.78782  Biso   1.000  C
  C114     1.0000 0.82809  0.88295  0.36531  Biso   1.000  C
  C115     1.0000 0.88873  0.63743  0.75828  Biso   1.000  C
  C116     1.0000 0.20568  0.07750  0.41232  Biso   1.000  C
  C117     1.0000 0.75904  0.91316  0.60517  Biso   1.000  C
  C118     1.0000 0.31050  0.79356  0.84815  Biso   1.000  C
  C119     1.0000 0.39757  0.82884  0.90739  Biso   1.000  C
  C120     1.0000 0.24172  0.11127  0.36257  Biso   1.000  C
  C121     1.0000 0.24096  0.08684  0.39483  Biso   1.000  C
  C122     1.0000 0.34782  0.20719  0.87362  Biso   1.000  C
  C123     1.0000 0.05097  0.55199  0.79613  Biso   1.000  C
  C124     1.0000 0.36257  0.24172  0.11127  Biso   1.000  C
  C125     1.0000 0.75828  0.11127  0.36257  Biso   1.000  C
  C126     1.0000 0.11705  0.63469  0.82809  Biso   1.000  C
  C127     1.0000 0.05097  0.55199  0.20387  Biso   1.000  C
  C128     1.0000 0.75828  0.88873  0.63743  Biso   1.000  C
  C129     1.0000 0.71603  0.21218  0.17238  Biso   1.000  C
  C130     1.0000 0.07750  0.58768  0.20568  Biso   1.000  C
  C131     1.0000 0.63743  0.24172  0.11127  Biso   1.000  C
  C132     1.0000 0.36531  0.17191  0.11705  Biso   1.000  C
  C133     1.0000 0.19457  0.74747  0.78534  Biso   1.000  C
  C134     1.0000 0.24096  0.91316  0.60517  Biso   1.000  C
  C135     1.0000 0.15185  0.68950  0.79356  Biso   1.000  C
  C136     1.0000 0.22400  0.75464  0.19020  Biso   1.000  C
  C137     1.0000 0.41232  0.20568  0.07750  Biso   1.000  C
  C138     1.0000 0.44801  0.79613  0.05097  Biso   1.000  C
  C139     1.0000 0.25253  0.21466  0.19457  Biso   1.000  C
  C140     1.0000 0.08684  0.60517  0.24096  Biso   1.000  C
  C141     1.0000 0.34782  0.79281  0.87362  Biso   1.000  C
  C142     1.0000 0.55199  0.79613  0.05097  Biso   1.000  C
  C143     1.0000 0.17116  0.90739  0.39757  Biso   1.000  C
  C144     1.0000 0.80980  0.77600  0.24536  Biso   1.000  C
  C145     1.0000 0.20387  0.05097  0.55199  Biso   1.000  C
  C146     1.0000 0.88295  0.36531  0.17191  Biso   1.000  C
  C147     1.0000 0.20719  0.87362  0.34782  Biso   1.000  C
  C148     1.0000 0.82884  0.90739  0.39757  Biso   1.000  C
  C149     1.0000 0.58768  0.20568  0.92250  Biso   1.000  C
  C150     1.0000 0.21466  0.80543  0.74747  Biso   1.000  C
  C151     1.0000 0.17191  0.88295  0.36531  Biso   1.000  C
  C152     1.0000 0.36257  0.75828  0.11127  Biso   1.000  C
  C153     1.0000 0.63469  0.17191  0.11705  Biso   1.000  C
  C154     1.0000 0.92250  0.58768  0.20568  Biso   1.000  C
  C155     1.0000 0.15185  0.31050  0.20644  Biso   1.000  C
  C156     1.0000 0.82762  0.71603  0.78782  Biso   1.000  C
  C157     1.0000 0.24536  0.80980  0.22400  Biso   1.000  C
  C158     1.0000 0.75464  0.19020  0.22400  Biso   1.000  C
  C159     1.0000 0.77600  0.24536  0.19020  Biso   1.000  C
  C160     1.0000 0.78534  0.80543  0.74747  Biso   1.000  C
  C161     1.0000 0.92250  0.41232  0.20568  Biso   1.000  C
  C162     1.0000 0.88873  0.36257  0.24172  Biso   1.000  C
  C163     1.0000 0.24536  0.19020  0.77600  Biso   1.000  C
  C164     1.0000 0.80980  0.22400  0.75464  Biso   1.000  C
  C165     1.0000 0.71603  0.78782  0.17238  Biso   1.000  C
  C166     1.0000 0.90739  0.60243  0.17116  Biso   1.000  C
  C167     1.0000 0.08684  0.39483  0.75904  Biso   1.000  C
  C168     1.0000 0.82762  0.71603  0.21218  Biso   1.000  C
  C169     1.0000 0.90739  0.39757  0.17116  Biso   1.000  C
  C170     1.0000 0.88295  0.63469  0.82809  Biso   1.000  C
  C171     1.0000 0.36531  0.82809  0.88295  Biso   1.000  C
  C172     1.0000 0.21218  0.17238  0.28397  Biso   1.000  C
  C173     1.0000 0.07750  0.58768  0.79432  Biso   1.000  C
  C174     1.0000 0.24172  0.88873  0.36257  Biso   1.000  C
  C175     1.0000 0.55199  0.20387  0.94903  Biso   1.000  C
  C176     1.0000 0.78782  0.17238  0.28397  Biso   1.000  C
  C177     1.0000 0.80980  0.22400  0.24536  Biso   1.000  C
  C178     1.0000 0.20719  0.87362  0.65218  Biso   1.000  C
  C179     1.0000 0.63743  0.75828  0.11127  Biso   1.000  C
  C180     1.0000 0.82809  0.88295  0.63469  Biso   1.000  C
  C181     1.0000 0.79281  0.12638  0.34782  Biso   1.000  C
  C182     1.0000 0.24096  0.91316  0.39483  Biso   1.000  C
  C183     1.0000 0.21218  0.82762  0.28397  Biso   1.000  C
  C184     1.0000 0.78782  0.82762  0.28397  Biso   1.000  C
  C185     1.0000 0.75464  0.19020  0.77600  Biso   1.000  C
  C186     1.0000 0.79432  0.92250  0.58768  Biso   1.000  C
  C187     1.0000 0.87362  0.34782  0.79281  Biso   1.000  C
  C188     1.0000 0.79432  0.92250  0.41232  Biso   1.000  C
  C189     1.0000 0.20644  0.84815  0.68950  Biso   1.000  C
  C190     1.0000 0.08684  0.60517  0.75904  Biso   1.000  C
  C191     1.0000 0.09261  0.39757  0.17116  Biso   1.000  C
  C192     1.0000 0.21466  0.80543  0.25253  Biso   1.000  C
  C193     1.0000 0.39483  0.24096  0.91316  Biso   1.000  C
  C194     1.0000 0.82809  0.11705  0.63469  Biso   1.000  C
  C195     1.0000 0.92250  0.58768  0.79432  Biso   1.000  C
  C196     1.0000 0.17238  0.71603  0.78782  Biso   1.000  C
  C197     1.0000 0.20719  0.12638  0.65218  Biso   1.000  C
  C198     1.0000 0.09261  0.60243  0.17116  Biso   1.000  C
  C199     1.0000 0.79613  0.05097  0.44801  Biso   1.000  C
  C200     1.0000 0.12638  0.65218  0.79281  Biso   1.000  C
  C201     1.0000 0.79356  0.15185  0.31050  Biso   1.000  C
  C202     1.0000 0.24536  0.19020  0.22400  Biso   1.000  C
  C203     1.0000 0.65218  0.79281  0.87362  Biso   1.000  C
  C204     1.0000 0.78534  0.19457  0.74747  Biso   1.000  C
  C205     1.0000 0.74747  0.21466  0.19457  Biso   1.000  C
  C206     1.0000 0.15185  0.68950  0.20644  Biso   1.000  C
  C207     1.0000 0.94903  0.55199  0.79613  Biso   1.000  C
  C208     1.0000 0.22400  0.24536  0.80980  Biso   1.000  C
  C209     1.0000 0.75828  0.11127  0.63743  Biso   1.000  C
  C210     1.0000 0.84815  0.68950  0.79356  Biso   1.000  C
  C211     1.0000 0.36531  0.17191  0.88295  Biso   1.000  C
  C212     1.0000 0.79432  0.07750  0.41232  Biso   1.000  C
  C213     1.0000 0.78782  0.82762  0.71603  Biso   1.000  C
  C214     1.0000 0.22400  0.75464  0.80980  Biso   1.000  C
  C215     1.0000 0.82884  0.09261  0.60243  Biso   1.000  C
  C216     1.0000 0.79356  0.15185  0.68950  Biso   1.000  C
  C217     1.0000 0.91316  0.60517  0.24096  Biso   1.000  C
  C218     1.0000 0.91316  0.39483  0.75904  Biso   1.000  C
  C219     1.0000 0.11127  0.36257  0.75828  Biso   1.000  C
  C220     1.0000 0.79432  0.07750  0.58768  Biso   1.000  C
  C221     1.0000 0.11705  0.63469  0.17191  Biso   1.000  C
  C222     1.0000 0.36531  0.82809  0.11705  Biso   1.000  C
  C223     1.0000 0.17116  0.90739  0.60243  Biso   1.000  C
  C224     1.0000 0.11127  0.36257  0.24172  Biso   1.000  C
  C225     1.0000 0.17116  0.09261  0.60243  Biso   1.000  C
  C226     1.0000 0.63469  0.82809  0.11705  Biso   1.000  C
  C227     1.0000 0.34782  0.20719  0.12638  Biso   1.000  C
  C228     1.0000 0.39757  0.82884  0.09261  Biso   1.000  C
  C229     1.0000 0.80980  0.77600  0.75464  Biso   1.000  C
  C230     1.0000 0.79281  0.87362  0.34782  Biso   1.000  C
  C231     1.0000 0.78534  0.19457  0.25253  Biso   1.000  C
  C232     1.0000 0.82884  0.90739  0.60243  Biso   1.000  C
  C233     1.0000 0.21218  0.17238  0.71603  Biso   1.000  C
  C234     1.0000 0.12638  0.34782  0.20719  Biso   1.000  C
  C235     1.0000 0.68950  0.20644  0.15185  Biso   1.000  C
  C236     1.0000 0.19020  0.77600  0.75464  Biso   1.000  C
  C237     1.0000 0.82762  0.28397  0.21218  Biso   1.000  C
  C238     1.0000 0.68950  0.79356  0.84815  Biso   1.000  C
  C239     1.0000 0.71603  0.21218  0.82762  Biso   1.000  C
  C240     1.0000 0.17191  0.88295  0.63469  Biso   1.000  C
  C241     1.0000 0.31050  0.20644  0.15185  Biso   1.000  C
  C242     1.0000 0.94903  0.44801  0.20387  Biso   1.000  C
  C243     1.0000 0.68950  0.79356  0.15185  Biso   1.000  C
  C244     1.0000 0.79281  0.12638  0.65218  Biso   1.000  C
  C245     1.0000 0.55199  0.79613  0.94903  Biso   1.000  C
  C246     1.0000 0.84815  0.31050  0.79356  Biso   1.000  C
  C247     1.0000 0.79281  0.87362  0.65218  Biso   1.000  C
  C248     1.0000 0.25253  0.78534  0.19457  Biso   1.000  C
  C249     1.0000 0.80543  0.74747  0.78534  Biso   1.000  C
  C250     1.0000 0.17238  0.28397  0.78782  Biso   1.000  C
  C251     1.0000 0.24536  0.80980  0.77600  Biso   1.000  C
  C252     1.0000 0.65218  0.20719  0.87362  Biso   1.000  C
  C253     1.0000 0.08684  0.39483  0.24096  Biso   1.000  C
  C254     1.0000 0.25253  0.21466  0.80543  Biso   1.000  C
  C255     1.0000 0.12638  0.65218  0.20719  Biso   1.000  C
  C256     1.0000 0.79613  0.94903  0.44801  Biso   1.000  C
  C257     1.0000 0.24096  0.08684  0.60517  Biso   1.000  C
  C258     1.0000 0.75904  0.91316  0.39483  Biso   1.000  C
  C259     1.0000 0.20644  0.84815  0.31050  Biso   1.000  C
  C260     1.0000 0.88295  0.63469  0.17191  Biso   1.000  C
  C261     1.0000 0.19457  0.25253  0.21466  Biso   1.000  C
  C262     1.0000 0.21466  0.19457  0.74747  Biso   1.000  C
  C263     1.0000 0.60243  0.82884  0.09261  Biso   1.000  C
  C264     1.0000 0.91316  0.39483  0.24096  Biso   1.000  C
  O1       1.0000 0.17049  0.03998  0.45910  Biso   1.000  O
  O2       1.0000 0.54090  0.17049  0.03998  Biso   1.000  O
  O3       1.0000 0.54050  0.76139  0.03964  Biso   1.000  O
  O4       1.0000 0.45950  0.23861  0.96036  Biso   1.000  O
  O5       1.0000 0.45950  0.76139  0.03964  Biso   1.000  O
  O6       1.0000 0.23861  0.96036  0.45950  Biso   1.000  O
  O7       1.0000 0.17049  0.96002  0.54090  Biso   1.000  O
  O8       1.0000 0.03964  0.54050  0.23861  Biso   1.000  O
  O9       1.0000 0.54050  0.23861  0.96036  Biso   1.000  O
  O10      1.0000 0.17049  0.03998  0.54090  Biso   1.000  O
  O11      1.0000 0.45910  0.17049  0.03998  Biso   1.000  O
  O12      1.0000 0.23861  0.96036  0.54050  Biso   1.000  O
  O13      1.0000 0.82951  0.03998  0.45910  Biso   1.000  O
  O14      1.0000 0.45950  0.23861  0.03964  Biso   1.000  O
  O15      1.0000 0.54090  0.82951  0.03998  Biso   1.000  O
  O16      1.0000 0.03964  0.54050  0.76139  Biso   1.000  O
  O17      1.0000 0.96002  0.54090  0.17049  Biso   1.000  O
  O18      1.0000 0.45910  0.82951  0.96002  Biso   1.000  O
  O19      1.0000 0.96036  0.54050  0.76139  Biso   1.000  O
  O20      1.0000 0.03998  0.54090  0.82951  Biso   1.000  O
  O21      1.0000 0.54050  0.76139  0.96036  Biso   1.000  O
  O22      1.0000 0.96036  0.45950  0.76139  Biso   1.000  O
  O23      1.0000 0.82951  0.03998  0.54090  Biso   1.000  O
  O24      1.0000 0.76139  0.03964  0.54050  Biso   1.000  O
  O25      1.0000 0.54050  0.23861  0.03964  Biso   1.000  O
  O26      1.0000 0.54090  0.82951  0.96002  Biso   1.000  O
  O27      1.0000 0.82951  0.96002  0.54090  Biso   1.000  O
  O28      1.0000 0.17049  0.96002  0.45910  Biso   1.000  O
  O29      1.0000 0.45910  0.17049  0.96002  Biso   1.000  O
  O30      1.0000 0.76139  0.96036  0.45950  Biso   1.000  O
  O31      1.0000 0.03998  0.54090  0.17049  Biso   1.000  O
  O32      1.0000 0.76139  0.96036  0.54050  Biso   1.000  O
  O33      1.0000 0.54090  0.17049  0.96002  Biso   1.000  O
  O34      1.0000 0.96002  0.45910  0.17049  Biso   1.000  O
  O35      1.0000 0.96002  0.45910  0.82951  Biso   1.000  O
  O36      1.0000 0.03998  0.45910  0.82951  Biso   1.000  O
  O37      1.0000 0.03998  0.45910  0.17049  Biso   1.000  O
  O38      1.0000 0.96002  0.54090  0.82951  Biso   1.000  O
  O39      1.0000 0.23861  0.03964  0.45950  Biso   1.000  O
  O40      1.0000 0.23861  0.03964  0.54050  Biso   1.000  O
  O41      1.0000 0.96036  0.54050  0.23861  Biso   1.000  O
  O42      1.0000 0.03964  0.45950  0.23861  Biso   1.000  O
  O43      1.0000 0.45950  0.76139  0.96036  Biso   1.000  O
  O44      1.0000 0.45910  0.82951  0.03998  Biso   1.000  O
  O45      1.0000 0.82951  0.96002  0.45910  Biso   1.000  O
  O46      1.0000 0.03964  0.45950  0.76139  Biso   1.000  O
  O47      1.0000 0.96036  0.45950  0.23861  Biso   1.000  O
  O48      1.0000 0.76139  0.03964  0.45950  Biso   1.000  O
  Cu13     1.0000 0.66966  0.49496  0.00000  Biso   1.000  Cu
  Cu14     1.0000 0.00329  0.66133  0.50000  Biso   1.000  Cu
  Cu15     1.0000 0.00329  0.32859  0.50000  Biso   1.000  Cu
  Cu16     1.0000 0.00329  0.25213  0.50000  Biso   1.000  Cu
  Cu17     1.0000 0.50329  0.99496  0.25717  Biso   1.000  Cu
  Cu18     1.0000 0.50329  0.99496  0.74283  Biso   1.000  Cu
  Cu19     1.0000 0.00329  0.73779  0.50000  Biso   1.000  Cu
  Cu20     1.0000 0.50329  0.99496  0.33363  Biso   1.000  Cu
  Cu21     1.0000 0.26046  0.49496  1.00000  Biso   1.000  Cu
  Cu22     1.0000 0.74612  0.49496  1.00000  Biso   1.000  Cu
  Cu23     1.0000 0.33692  0.49496  0.00000  Biso   1.000  Cu
  Cu24     1.0000 0.50329  0.99496  0.66637  Biso   1.000  Cu
  H121     1.0000 0.38569  0.84566  0.76560  Biso   1.000  H
  H122     1.0000 0.24169  0.66326  0.72630  Biso   1.000  H
  H123     1.0000 0.23769  0.61256  0.85070  Biso   1.000  H
  H124     1.0000 0.35599  0.40866  0.09060  Biso   1.000  H
  H125     1.0000 0.33499  0.72126  0.76160  Biso   1.000  H
  H126     1.0000 0.57989  0.89976  0.76430  Biso   1.000  H
  H127     1.0000 0.85859  0.64356  0.62730  Biso   1.000  H
  H128     1.0000 0.27699  0.75656  0.33170  Biso   1.000  H
  H129     1.0000 0.76759  0.41836  0.90480  Biso   1.000  H
  H130     1.0000 0.91269  0.34766  0.41370  Biso   1.000  H
  H131     1.0000 0.09849  0.75926  0.57660  Biso   1.000  H
  H132     1.0000 0.41699  0.08556  0.35270  Biso   1.000  H
  H133     1.0000 0.33499  0.26866  0.76160  Biso   1.000  H
  H134     1.0000 0.58959  0.90436  0.35270  Biso   1.000  H
  H135     1.0000 0.35599  0.40866  0.90940  Biso   1.000  H
  H136     1.0000 0.23899  0.57156  0.09520  Biso   1.000  H
  H137     1.0000 0.85399  0.22936  0.61760  Biso   1.000  H
  H138     1.0000 0.85859  0.64356  0.37270  Biso   1.000  H
  H139     1.0000 0.76489  0.66326  0.27370  Biso   1.000  H
  H140     1.0000 0.35469  0.62226  0.14470  Biso   1.000  H
  H141     1.0000 0.23899  0.41836  0.09520  Biso   1.000  H
  H142     1.0000 0.90809  0.75926  0.57660  Biso   1.000  H
  H143     1.0000 0.72959  0.75656  0.33170  Biso   1.000  H
  H144     1.0000 0.09849  0.23066  0.57660  Biso   1.000  H
  H145     1.0000 0.33499  0.72126  0.23840  Biso   1.000  H
  H146     1.0000 0.14799  0.64356  0.37270  Biso   1.000  H
  H147     1.0000 0.65189  0.62226  0.85530  Biso   1.000  H
  H148     1.0000 0.72959  0.23336  0.66830  Biso   1.000  H
  H149     1.0000 0.58959  0.90436  0.64730  Biso   1.000  H
  H150     1.0000 0.41699  0.90436  0.35270  Biso   1.000  H
  H151     1.0000 0.65189  0.36766  0.14470  Biso   1.000  H
  H152     1.0000 0.41699  0.08556  0.64730  Biso   1.000  H
  H153     1.0000 0.67159  0.26866  0.23840  Biso   1.000  H
  H154     1.0000 0.67159  0.72126  0.76160  Biso   1.000  H
  H155     1.0000 0.35599  0.58126  0.90940  Biso   1.000  H
  H156     1.0000 0.27699  0.23336  0.66830  Biso   1.000  H
  H157     1.0000 0.90809  0.75926  0.42340  Biso   1.000  H
  H158     1.0000 0.62089  0.84566  0.76560  Biso   1.000  H
  H159     1.0000 0.76489  0.32666  0.72630  Biso   1.000  H
  H160     1.0000 0.23899  0.41836  0.90480  Biso   1.000  H
  H161     1.0000 0.35469  0.62226  0.85530  Biso   1.000  H
  H162     1.0000 0.37599  0.13966  0.35140  Biso   1.000  H
  H163     1.0000 0.23769  0.37736  0.85070  Biso   1.000  H
  H164     1.0000 0.65189  0.62226  0.14470  Biso   1.000  H
  H165     1.0000 0.63059  0.85026  0.35140  Biso   1.000  H
  H166     1.0000 0.90809  0.23066  0.57660  Biso   1.000  H
  H167     1.0000 0.15259  0.22936  0.38240  Biso   1.000  H
  H168     1.0000 0.09849  0.75926  0.42340  Biso   1.000  H
  H169     1.0000 0.76889  0.61256  0.14930  Biso   1.000  H
  H170     1.0000 0.42669  0.89976  0.23570  Biso   1.000  H
  H171     1.0000 0.62089  0.84566  0.23440  Biso   1.000  H
  H172     1.0000 0.57989  0.09016  0.23570  Biso   1.000  H
  H173     1.0000 0.09849  0.23066  0.42340  Biso   1.000  H
  H174     1.0000 0.58959  0.08556  0.35270  Biso   1.000  H
  H175     1.0000 0.35599  0.58126  0.09060  Biso   1.000  H
  H176     1.0000 0.65059  0.58126  0.09060  Biso   1.000  H
  H177     1.0000 0.14799  0.64356  0.62730  Biso   1.000  H
  H178     1.0000 0.58959  0.08556  0.64730  Biso   1.000  H
  H179     1.0000 0.09389  0.64226  0.58630  Biso   1.000  H
  H180     1.0000 0.09389  0.34766  0.58630  Biso   1.000  H
  H181     1.0000 0.57989  0.09016  0.76430  Biso   1.000  H
  H182     1.0000 0.23899  0.57156  0.90480  Biso   1.000  H
  H183     1.0000 0.76759  0.41836  0.09520  Biso   1.000  H
  H184     1.0000 0.15259  0.22936  0.61760  Biso   1.000  H
  H185     1.0000 0.42669  0.09016  0.76430  Biso   1.000  H
  H186     1.0000 0.23769  0.61256  0.14930  Biso   1.000  H
  H187     1.0000 0.76489  0.32666  0.27370  Biso   1.000  H
  H188     1.0000 0.63059  0.85026  0.64860  Biso   1.000  H
  H189     1.0000 0.38569  0.84566  0.23440  Biso   1.000  H
  H190     1.0000 0.38569  0.14426  0.76560  Biso   1.000  H
  H191     1.0000 0.76759  0.57156  0.09520  Biso   1.000  H
  H192     1.0000 0.14799  0.34636  0.37270  Biso   1.000  H
  H193     1.0000 0.35469  0.36766  0.14470  Biso   1.000  H
  H194     1.0000 0.85399  0.22936  0.38240  Biso   1.000  H
  H195     1.0000 0.23769  0.37736  0.14930  Biso   1.000  H
  H196     1.0000 0.72959  0.23336  0.33170  Biso   1.000  H
  H197     1.0000 0.85399  0.76056  0.38240  Biso   1.000  H
  H198     1.0000 0.37599  0.85026  0.64860  Biso   1.000  H
  H199     1.0000 0.76889  0.61256  0.85070  Biso   1.000  H
  H200     1.0000 0.24169  0.66326  0.27370  Biso   1.000  H
  H201     1.0000 0.15259  0.76056  0.38240  Biso   1.000  H
  H202     1.0000 0.65059  0.58126  0.90940  Biso   1.000  H
  H203     1.0000 0.91269  0.64226  0.58630  Biso   1.000  H
  H204     1.0000 0.65059  0.40866  0.90940  Biso   1.000  H
  H205     1.0000 0.90809  0.23066  0.42340  Biso   1.000  H
  H206     1.0000 0.42669  0.89976  0.76430  Biso   1.000  H
  H207     1.0000 0.27699  0.75656  0.66830  Biso   1.000  H
  H208     1.0000 0.09389  0.64226  0.41370  Biso   1.000  H
  H209     1.0000 0.09389  0.34766  0.41370  Biso   1.000  H
  H210     1.0000 0.67159  0.26866  0.76160  Biso   1.000  H
  H211     1.0000 0.35469  0.36766  0.85530  Biso   1.000  H
  H212     1.0000 0.15259  0.76056  0.61760  Biso   1.000  H
  H213     1.0000 0.65059  0.40866  0.09060  Biso   1.000  H
  H214     1.0000 0.85859  0.34636  0.62730  Biso   1.000  H
  H215     1.0000 0.57989  0.89976  0.23570  Biso   1.000  H
  H216     1.0000 0.33499  0.26866  0.23840  Biso   1.000  H
  H217     1.0000 0.42669  0.09016  0.23570  Biso   1.000  H
  H218     1.0000 0.85859  0.34636  0.37270  Biso   1.000  H
  H219     1.0000 0.41699  0.90436  0.64730  Biso   1.000  H
  H220     1.0000 0.63059  0.13966  0.35140  Biso   1.000  H
  H221     1.0000 0.37599  0.85026  0.35140  Biso   1.000  H
  H222     1.0000 0.76489  0.66326  0.72630  Biso   1.000  H
  H223     1.0000 0.91269  0.34766  0.58630  Biso   1.000  H
  H224     1.0000 0.65189  0.36766  0.85530  Biso   1.000  H
  H225     1.0000 0.14799  0.34636  0.62730  Biso   1.000  H
  H226     1.0000 0.62089  0.14426  0.76560  Biso   1.000  H
  H227     1.0000 0.37599  0.13966  0.64860  Biso   1.000  H
  H228     1.0000 0.85399  0.76056  0.61760  Biso   1.000  H
  H229     1.0000 0.67159  0.72126  0.23840  Biso   1.000  H
  H230     1.0000 0.62089  0.14426  0.23440  Biso   1.000  H
  H231     1.0000 0.24169  0.32666  0.27370  Biso   1.000  H
  H232     1.0000 0.76759  0.57156  0.90480  Biso   1.000  H
  H233     1.0000 0.38569  0.14426  0.23440  Biso   1.000  H
  H234     1.0000 0.76889  0.37736  0.14930  Biso   1.000  H
  H235     1.0000 0.24169  0.32666  0.72630  Biso   1.000  H
  H236     1.0000 0.27699  0.23336  0.33170  Biso   1.000  H
  H237     1.0000 0.63059  0.13966  0.64860  Biso   1.000  H
  H238     1.0000 0.76889  0.37736  0.85070  Biso   1.000  H
  H239     1.0000 0.91269  0.64226  0.41370  Biso   1.000  H
  H240     1.0000 0.72959  0.75656  0.66830  Biso   1.000  H
  C265     1.0000 0.74865  0.30476  0.27600  Biso   1.000  C
  C266     1.0000 0.29942  0.44399  0.94801  Biso   1.000  C
  C267     1.0000 0.25793  0.30476  0.72400  Biso   1.000  C
  C268     1.0000 0.28863  0.68953  0.24747  Biso   1.000  C
  C269     1.0000 0.29610  0.36858  0.15218  Biso   1.000  C
  C270     1.0000 0.38624  0.12965  0.67191  Biso   1.000  C
  C271     1.0000 0.78726  0.28278  0.67238  Biso   1.000  C
  C272     1.0000 0.41068  0.09739  0.32884  Biso   1.000  C
  C273     1.0000 0.19279  0.28852  0.34815  Biso   1.000  C
  C274     1.0000 0.86586  0.25324  0.38873  Biso   1.000  C
  C275     1.0000 0.71547  0.66734  0.78397  Biso   1.000  C
  C276     1.0000 0.09097  0.70064  0.57750  Biso   1.000  C
  C277     1.0000 0.69786  0.24243  0.28534  Biso   1.000  C
  C278     1.0000 0.71048  0.36858  0.84782  Biso   1.000  C
  C279     1.0000 0.41068  0.09739  0.67116  Biso   1.000  C
  C280     1.0000 0.45232  0.94297  0.29613  Biso   1.000  C
  C281     1.0000 0.65514  0.18446  0.29356  Biso   1.000  C
  C282     1.0000 0.86586  0.73668  0.61127  Biso   1.000  C
  C283     1.0000 0.75582  0.28030  0.69457  Biso   1.000  C
  C284     1.0000 0.55426  0.04695  0.70387  Biso   1.000  C
  C285     1.0000 0.71795  0.68953  0.24747  Biso   1.000  C
  C286     1.0000 0.75582  0.28030  0.30543  Biso   1.000  C
  C287     1.0000 0.45232  0.04695  0.70387  Biso   1.000  C
  C288     1.0000 0.67567  0.77893  0.71218  Biso   1.000  C
  C289     1.0000 0.38624  0.12965  0.32809  Biso   1.000  C
  C290     1.0000 0.33213  0.40235  0.89757  Biso   1.000  C
  C291     1.0000 0.29685  0.64681  0.81050  Biso   1.000  C
  C292     1.0000 0.26233  0.40812  0.89483  Biso   1.000  C
  C293     1.0000 0.86586  0.25324  0.61127  Biso   1.000  C
  C294     1.0000 0.85111  0.70215  0.37362  Biso   1.000  C
  C295     1.0000 0.42579  0.90728  0.70568  Biso   1.000  C
  C296     1.0000 0.29685  0.64681  0.18950  Biso   1.000  C
  C297     1.0000 0.95130  0.29109  0.44903  Biso   1.000  C
  C298     1.0000 0.89812  0.73592  0.41316  Biso   1.000  C
  C299     1.0000 0.35144  0.80546  0.70644  Biso   1.000  C
  C300     1.0000 0.74501  0.60623  0.13743  Biso   1.000  C
  C301     1.0000 0.69349  0.71896  0.25464  Biso   1.000  C
  C302     1.0000 0.09097  0.70064  0.42250  Biso   1.000  C
  C303     1.0000 0.39202  0.85753  0.74172  Biso   1.000  C
  C304     1.0000 0.74425  0.40812  0.89483  Biso   1.000  C
  C305     1.0000 0.13798  0.66687  0.38295  Biso   1.000  C
  C306     1.0000 0.71795  0.68953  0.75253  Biso   1.000  C
  C307     1.0000 0.13798  0.66687  0.61705  Biso   1.000  C
  C308     1.0000 0.70897  0.41746  0.08768  Biso   1.000  C
  C309     1.0000 0.90086  0.66612  0.40739  Biso   1.000  C
  C310     1.0000 0.69349  0.27096  0.25464  Biso   1.000  C
  C311     1.0000 0.29111  0.66734  0.78397  Biso   1.000  C
  C312     1.0000 0.14072  0.73668  0.38873  Biso   1.000  C
  C313     1.0000 0.25076  0.70962  0.69457  Biso   1.000  C
  C314     1.0000 0.15547  0.70215  0.62638  Biso   1.000  C
  C315     1.0000 0.33213  0.58757  0.89757  Biso   1.000  C
  C316     1.0000 0.67520  0.61201  0.13469  Biso   1.000  C
  C317     1.0000 0.70897  0.57246  0.91232  Biso   1.000  C
  C318     1.0000 0.09097  0.28928  0.57750  Biso   1.000  C
  C319     1.0000 0.74425  0.40812  0.10517  Biso   1.000  C
  C320     1.0000 0.26233  0.40812  0.10517  Biso   1.000  C
  C321     1.0000 0.61456  0.85753  0.74172  Biso   1.000  C
  C322     1.0000 0.33213  0.58757  0.10243  Biso   1.000  C
  C323     1.0000 0.74501  0.60623  0.86257  Biso   1.000  C
  C324     1.0000 0.74865  0.68516  0.27600  Biso   1.000  C
  C325     1.0000 0.71048  0.36858  0.15218  Biso   1.000  C
  C326     1.0000 0.10572  0.66612  0.40739  Biso   1.000  C
  C327     1.0000 0.13798  0.32305  0.61705  Biso   1.000  C
  C328     1.0000 0.81379  0.28852  0.34815  Biso   1.000  C
  C329     1.0000 0.71547  0.32258  0.78397  Biso   1.000  C
  C330     1.0000 0.33138  0.61201  0.13469  Biso   1.000  C
  C331     1.0000 0.26233  0.58180  0.10517  Biso   1.000  C
  C332     1.0000 0.19279  0.70140  0.65185  Biso   1.000  C
  C333     1.0000 0.71547  0.66734  0.21603  Biso   1.000  C
  C334     1.0000 0.58079  0.90728  0.70568  Biso   1.000  C
  C335     1.0000 0.70716  0.54593  0.94801  Biso   1.000  C
  C336     1.0000 0.05528  0.29109  0.55097  Biso   1.000  C
  C337     1.0000 0.41645  0.88979  0.25904  Biso   1.000  C
  C338     1.0000 0.26157  0.60623  0.13743  Biso   1.000  C
  C339     1.0000 0.72729  0.24960  0.69020  Biso   1.000  C
  C340     1.0000 0.27929  0.24960  0.69020  Biso   1.000  C
  C341     1.0000 0.71795  0.30039  0.24747  Biso   1.000  C
  C342     1.0000 0.67445  0.58757  0.10243  Biso   1.000  C
  C343     1.0000 0.29761  0.57246  0.91232  Biso   1.000  C
  C344     1.0000 0.74425  0.58180  0.10517  Biso   1.000  C
  C345     1.0000 0.26157  0.60623  0.86257  Biso   1.000  C
  C346     1.0000 0.70973  0.34311  0.81050  Biso   1.000  C
  C347     1.0000 0.29761  0.41746  0.08768  Biso   1.000  C
  C348     1.0000 0.30872  0.24243  0.71466  Biso   1.000  C
  C349     1.0000 0.37691  0.14714  0.70719  Biso   1.000  C
  C350     1.0000 0.25076  0.28030  0.30543  Biso   1.000  C
  C351     1.0000 0.25793  0.68516  0.27600  Biso   1.000  C
  C352     1.0000 0.05528  0.69883  0.44903  Biso   1.000  C
  C353     1.0000 0.10572  0.66612  0.59261  Biso   1.000  C
  C354     1.0000 0.65514  0.80546  0.29356  Biso   1.000  C
  C355     1.0000 0.74425  0.58180  0.89483  Biso   1.000  C
  C356     1.0000 0.35144  0.18446  0.70644  Biso   1.000  C
  C357     1.0000 0.33091  0.77893  0.28782  Biso   1.000  C
  C358     1.0000 0.05528  0.69883  0.55097  Biso   1.000  C
  C359     1.0000 0.33213  0.40235  0.10243  Biso   1.000  C
  C360     1.0000 0.90086  0.66612  0.59261  Biso   1.000  C
  C361     1.0000 0.41645  0.10013  0.25904  Biso   1.000  C
  C362     1.0000 0.70897  0.57246  0.08768  Biso   1.000  C
  C363     1.0000 0.85111  0.28777  0.37362  Biso   1.000  C
  C364     1.0000 0.29942  0.54593  0.94801  Biso   1.000  C
  C365     1.0000 0.29942  0.44399  0.05199  Biso   1.000  C
  C366     1.0000 0.58079  0.08264  0.70568  Biso   1.000  C
  C367     1.0000 0.21932  0.28278  0.67238  Biso   1.000  C
  C368     1.0000 0.25076  0.70962  0.30543  Biso   1.000  C
  C369     1.0000 0.55426  0.94297  0.70387  Biso   1.000  C
  C370     1.0000 0.55426  0.94297  0.29613  Biso   1.000  C
  C371     1.0000 0.15547  0.28777  0.37362  Biso   1.000  C
  C372     1.0000 0.38624  0.86027  0.67191  Biso   1.000  C
  C373     1.0000 0.29111  0.32258  0.78397  Biso   1.000  C
  C374     1.0000 0.70897  0.41746  0.91232  Biso   1.000  C
  C375     1.0000 0.27929  0.74032  0.69020  Biso   1.000  C
  C376     1.0000 0.61456  0.13239  0.25828  Biso   1.000  C
  C377     1.0000 0.21932  0.70714  0.32762  Biso   1.000  C
  C378     1.0000 0.62034  0.12965  0.32809  Biso   1.000  C
  C379     1.0000 0.86586  0.73668  0.38873  Biso   1.000  C
  C380     1.0000 0.42579  0.08264  0.70568  Biso   1.000  C
  C381     1.0000 0.59013  0.88979  0.25904  Biso   1.000  C
  C382     1.0000 0.70973  0.64681  0.81050  Biso   1.000  C
  C383     1.0000 0.67445  0.58757  0.89757  Biso   1.000  C
  C384     1.0000 0.39202  0.13239  0.74172  Biso   1.000  C
  C385     1.0000 0.41645  0.10013  0.74096  Biso   1.000  C
  C386     1.0000 0.29610  0.62134  0.84782  Biso   1.000  C
  C387     1.0000 0.95130  0.69883  0.55097  Biso   1.000  C
  C388     1.0000 0.26157  0.38369  0.86257  Biso   1.000  C
  C389     1.0000 0.39202  0.13239  0.25828  Biso   1.000  C
  C390     1.0000 0.86860  0.66687  0.61705  Biso   1.000  C
  C391     1.0000 0.95130  0.29109  0.55097  Biso   1.000  C
  C392     1.0000 0.61456  0.85753  0.25828  Biso   1.000  C
  C393     1.0000 0.29111  0.32258  0.21603  Biso   1.000  C
  C394     1.0000 0.91561  0.28928  0.57750  Biso   1.000  C
  C395     1.0000 0.26157  0.38369  0.13743  Biso   1.000  C
  C396     1.0000 0.33138  0.37791  0.86531  Biso   1.000  C
  C397     1.0000 0.75582  0.70962  0.69457  Biso   1.000  C
  C398     1.0000 0.59013  0.88979  0.74096  Biso   1.000  C
  C399     1.0000 0.81379  0.70140  0.65185  Biso   1.000  C
  C400     1.0000 0.74865  0.30476  0.72400  Biso   1.000  C
  C401     1.0000 0.29761  0.41746  0.91232  Biso   1.000  C
  C402     1.0000 0.70716  0.44399  0.94801  Biso   1.000  C
  C403     1.0000 0.28863  0.30039  0.75253  Biso   1.000  C
  C404     1.0000 0.89812  0.25400  0.58684  Biso   1.000  C
  C405     1.0000 0.71048  0.62134  0.84782  Biso   1.000  C
  C406     1.0000 0.70716  0.44399  0.05199  Biso   1.000  C
  C407     1.0000 0.59590  0.09739  0.67116  Biso   1.000  C
  C408     1.0000 0.72729  0.24960  0.30980  Biso   1.000  C
  C409     1.0000 0.45232  0.94297  0.70387  Biso   1.000  C
  C410     1.0000 0.13798  0.32305  0.38295  Biso   1.000  C
  C411     1.0000 0.62967  0.14714  0.70719  Biso   1.000  C
  C412     1.0000 0.59590  0.09739  0.32884  Biso   1.000  C
  C413     1.0000 0.29761  0.57246  0.08768  Biso   1.000  C
  C414     1.0000 0.69786  0.74749  0.71466  Biso   1.000  C
  C415     1.0000 0.62034  0.12965  0.67191  Biso   1.000  C
  C416     1.0000 0.74501  0.38369  0.86257  Biso   1.000  C
  C417     1.0000 0.33138  0.37791  0.13469  Biso   1.000  C
  C418     1.0000 0.91561  0.28928  0.42250  Biso   1.000  C
  C419     1.0000 0.19279  0.28852  0.65185  Biso   1.000  C
  C420     1.0000 0.78726  0.70714  0.32762  Biso   1.000  C
  C421     1.0000 0.69349  0.27096  0.74536  Biso   1.000  C
  C422     1.0000 0.31309  0.27096  0.25464  Biso   1.000  C
  C423     1.0000 0.25793  0.30476  0.27600  Biso   1.000  C
  C424     1.0000 0.69786  0.74749  0.28534  Biso   1.000  C
  C425     1.0000 0.09097  0.28928  0.42250  Biso   1.000  C
  C426     1.0000 0.14072  0.25324  0.38873  Biso   1.000  C
  C427     1.0000 0.31309  0.71896  0.74536  Biso   1.000  C
  C428     1.0000 0.27929  0.74032  0.30980  Biso   1.000  C
  C429     1.0000 0.71547  0.32258  0.21603  Biso   1.000  C
  C430     1.0000 0.90086  0.32380  0.40739  Biso   1.000  C
  C431     1.0000 0.10846  0.73592  0.58684  Biso   1.000  C
  C432     1.0000 0.78726  0.28278  0.32762  Biso   1.000  C
  C433     1.0000 0.10572  0.32380  0.40739  Biso   1.000  C
  C434     1.0000 0.86860  0.66687  0.38295  Biso   1.000  C
  C435     1.0000 0.67520  0.61201  0.86531  Biso   1.000  C
  C436     1.0000 0.33091  0.21099  0.71218  Biso   1.000  C
  C437     1.0000 0.91561  0.70064  0.57750  Biso   1.000  C
  C438     1.0000 0.61456  0.13239  0.74172  Biso   1.000  C
  C439     1.0000 0.29942  0.54593  0.05199  Biso   1.000  C
  C440     1.0000 0.33091  0.21099  0.28782  Biso   1.000  C
  C441     1.0000 0.27929  0.24960  0.30980  Biso   1.000  C
  C442     1.0000 0.62967  0.84278  0.70719  Biso   1.000  C
  C443     1.0000 0.74501  0.38369  0.13743  Biso   1.000  C
  C444     1.0000 0.62034  0.86027  0.32809  Biso   1.000  C
  C445     1.0000 0.37691  0.14714  0.29281  Biso   1.000  C
  C446     1.0000 0.59013  0.10013  0.74096  Biso   1.000  C
  C447     1.0000 0.67567  0.21099  0.71218  Biso   1.000  C
  C448     1.0000 0.67567  0.21099  0.28782  Biso   1.000  C
  C449     1.0000 0.31309  0.71896  0.25464  Biso   1.000  C
  C450     1.0000 0.58079  0.90728  0.29432  Biso   1.000  C
  C451     1.0000 0.15547  0.70215  0.37362  Biso   1.000  C
  C452     1.0000 0.58079  0.08264  0.29432  Biso   1.000  C
  C453     1.0000 0.65514  0.80546  0.70644  Biso   1.000  C
  C454     1.0000 0.89812  0.73592  0.58684  Biso   1.000  C
  C455     1.0000 0.10572  0.32380  0.59261  Biso   1.000  C
  C456     1.0000 0.69786  0.24243  0.71466  Biso   1.000  C
  C457     1.0000 0.26233  0.58180  0.89483  Biso   1.000  C
  C458     1.0000 0.38624  0.86027  0.32809  Biso   1.000  C
  C459     1.0000 0.91561  0.70064  0.42250  Biso   1.000  C
  C460     1.0000 0.78726  0.70714  0.67238  Biso   1.000  C
  C461     1.0000 0.37691  0.84278  0.70719  Biso   1.000  C
  C462     1.0000 0.90086  0.32380  0.59261  Biso   1.000  C
  C463     1.0000 0.45232  0.04695  0.29613  Biso   1.000  C
  C464     1.0000 0.85111  0.70215  0.62638  Biso   1.000  C
  C465     1.0000 0.35144  0.18446  0.29356  Biso   1.000  C
  C466     1.0000 0.31309  0.27096  0.74536  Biso   1.000  C
  C467     1.0000 0.71048  0.62134  0.15218  Biso   1.000  C
  C468     1.0000 0.30872  0.74749  0.28534  Biso   1.000  C
  C469     1.0000 0.28863  0.30039  0.24747  Biso   1.000  C
  C470     1.0000 0.81379  0.28852  0.65185  Biso   1.000  C
  C471     1.0000 0.95130  0.69883  0.44903  Biso   1.000  C
  C472     1.0000 0.25793  0.68516  0.72400  Biso   1.000  C
  C473     1.0000 0.39202  0.85753  0.25828  Biso   1.000  C
  C474     1.0000 0.81379  0.70140  0.34815  Biso   1.000  C
  C475     1.0000 0.33138  0.61201  0.86531  Biso   1.000  C
  C476     1.0000 0.42579  0.08264  0.29432  Biso   1.000  C
  C477     1.0000 0.67567  0.77893  0.28782  Biso   1.000  C
  C478     1.0000 0.74865  0.68516  0.72400  Biso   1.000  C
  C479     1.0000 0.41068  0.89253  0.32884  Biso   1.000  C
  C480     1.0000 0.35144  0.80546  0.29356  Biso   1.000  C
  C481     1.0000 0.89812  0.25400  0.41316  Biso   1.000  C
  C482     1.0000 0.10846  0.73592  0.41316  Biso   1.000  C
  C483     1.0000 0.14072  0.73668  0.61127  Biso   1.000  C
  C484     1.0000 0.42579  0.90728  0.29432  Biso   1.000  C
  C485     1.0000 0.86860  0.32305  0.61705  Biso   1.000  C
  C486     1.0000 0.67520  0.37791  0.86531  Biso   1.000  C
  C487     1.0000 0.59590  0.89253  0.67116  Biso   1.000  C
  C488     1.0000 0.14072  0.25324  0.61127  Biso   1.000  C
  C489     1.0000 0.41068  0.89253  0.67116  Biso   1.000  C
  C490     1.0000 0.67520  0.37791  0.13469  Biso   1.000  C
  C491     1.0000 0.29610  0.36858  0.84782  Biso   1.000  C
  C492     1.0000 0.67445  0.40235  0.89757  Biso   1.000  C
  C493     1.0000 0.72729  0.74032  0.30980  Biso   1.000  C
  C494     1.0000 0.62967  0.14714  0.29281  Biso   1.000  C
  C495     1.0000 0.30872  0.24243  0.28534  Biso   1.000  C
  C496     1.0000 0.59590  0.89253  0.32884  Biso   1.000  C
  C497     1.0000 0.33091  0.77893  0.71218  Biso   1.000  C
  C498     1.0000 0.15547  0.28777  0.62638  Biso   1.000  C
  C499     1.0000 0.29685  0.34311  0.18950  Biso   1.000  C
  C500     1.0000 0.72729  0.74032  0.69020  Biso   1.000  C
  C501     1.0000 0.21932  0.28278  0.32762  Biso   1.000  C
  C502     1.0000 0.70973  0.64681  0.18950  Biso   1.000  C
  C503     1.0000 0.29111  0.66734  0.21603  Biso   1.000  C
  C504     1.0000 0.62034  0.86027  0.67191  Biso   1.000  C
  C505     1.0000 0.29685  0.34311  0.81050  Biso   1.000  C
  C506     1.0000 0.05528  0.29109  0.44903  Biso   1.000  C
  C507     1.0000 0.70973  0.34311  0.18950  Biso   1.000  C
  C508     1.0000 0.37691  0.84278  0.29281  Biso   1.000  C
  C509     1.0000 0.70716  0.54593  0.05199  Biso   1.000  C
  C510     1.0000 0.19279  0.70140  0.34815  Biso   1.000  C
  C511     1.0000 0.62967  0.84278  0.29281  Biso   1.000  C
  C512     1.0000 0.71795  0.30039  0.75253  Biso   1.000  C
  C513     1.0000 0.75582  0.70962  0.30543  Biso   1.000  C
  C514     1.0000 0.21932  0.70714  0.67238  Biso   1.000  C
  C515     1.0000 0.69349  0.71896  0.74536  Biso   1.000  C
  C516     1.0000 0.29610  0.62134  0.15218  Biso   1.000  C
  C517     1.0000 0.10846  0.25400  0.58684  Biso   1.000  C
  C518     1.0000 0.28863  0.68953  0.75253  Biso   1.000  C
  C519     1.0000 0.85111  0.28777  0.62638  Biso   1.000  C
  C520     1.0000 0.55426  0.04695  0.29613  Biso   1.000  C
  C521     1.0000 0.41645  0.88979  0.74096  Biso   1.000  C
  C522     1.0000 0.59013  0.10013  0.25904  Biso   1.000  C
  C523     1.0000 0.65514  0.18446  0.70644  Biso   1.000  C
  C524     1.0000 0.86860  0.32305  0.38295  Biso   1.000  C
  C525     1.0000 0.25076  0.28030  0.69457  Biso   1.000  C
  C526     1.0000 0.30872  0.74749  0.71466  Biso   1.000  C
  C527     1.0000 0.67445  0.40235  0.10243  Biso   1.000  C
  C528     1.0000 0.10846  0.25400  0.41316  Biso   1.000  C
  O49      1.0000 0.46331  0.03586  0.67049  Biso   1.000  O
  O50      1.0000 0.33280  0.45498  0.04090  Biso   1.000  O
  O51      1.0000 0.74190  0.45532  0.04050  Biso   1.000  O
  O52      1.0000 0.26468  0.53460  0.95950  Biso   1.000  O
  O53      1.0000 0.74190  0.45532  0.95950  Biso   1.000  O
  O54      1.0000 0.54293  0.03546  0.73861  Biso   1.000  O
  O55      1.0000 0.54327  0.95406  0.67049  Biso   1.000  O
  O56      1.0000 0.96279  0.25635  0.53964  Biso   1.000  O
  O57      1.0000 0.26468  0.53460  0.04050  Biso   1.000  O
  O58      1.0000 0.46331  0.95406  0.67049  Biso   1.000  O
  O59      1.0000 0.33280  0.45498  0.95910  Biso   1.000  O
  O60      1.0000 0.54293  0.95446  0.73861  Biso   1.000  O
  O61      1.0000 0.46331  0.03586  0.32951  Biso   1.000  O
  O62      1.0000 0.26468  0.45532  0.95950  Biso   1.000  O
  O63      1.0000 0.67378  0.45498  0.04090  Biso   1.000  O
  O64      1.0000 0.96279  0.73357  0.53964  Biso   1.000  O
  O65      1.0000 0.96239  0.32447  0.46002  Biso   1.000  O
  O66      1.0000 0.67378  0.53494  0.95910  Biso   1.000  O
  O67      1.0000 0.96279  0.73357  0.46036  Biso   1.000  O
  O68      1.0000 0.96239  0.66545  0.53998  Biso   1.000  O
  O69      1.0000 0.74190  0.53460  0.04050  Biso   1.000  O
  O70      1.0000 0.04379  0.73357  0.46036  Biso   1.000  O
  O71      1.0000 0.46331  0.95406  0.32951  Biso   1.000  O
  O72      1.0000 0.46365  0.95446  0.26139  Biso   1.000  O
  O73      1.0000 0.26468  0.45532  0.04050  Biso   1.000  O
  O74      1.0000 0.67378  0.53494  0.04090  Biso   1.000  O
  O75      1.0000 0.54327  0.95406  0.32951  Biso   1.000  O
  O76      1.0000 0.54327  0.03586  0.67049  Biso   1.000  O
  O77      1.0000 0.33280  0.53494  0.95910  Biso   1.000  O
  O78      1.0000 0.54293  0.03546  0.26139  Biso   1.000  O
  O79      1.0000 0.96239  0.32447  0.53998  Biso   1.000  O
  O80      1.0000 0.54293  0.95446  0.26139  Biso   1.000  O
  O81      1.0000 0.33280  0.53494  0.04090  Biso   1.000  O
  O82      1.0000 0.04419  0.32447  0.46002  Biso   1.000  O
  O83      1.0000 0.04419  0.66545  0.46002  Biso   1.000  O
  O84      1.0000 0.04419  0.66545  0.53998  Biso   1.000  O
  O85      1.0000 0.04419  0.32447  0.53998  Biso   1.000  O
  O86      1.0000 0.96239  0.66545  0.46002  Biso   1.000  O
  O87      1.0000 0.46365  0.03546  0.73861  Biso   1.000  O
  O88      1.0000 0.46365  0.95446  0.73861  Biso   1.000  O
  O89      1.0000 0.96279  0.25635  0.46036  Biso   1.000  O
  O90      1.0000 0.04379  0.25635  0.53964  Biso   1.000  O
  O91      1.0000 0.74190  0.53460  0.95950  Biso   1.000  O
  O92      1.0000 0.67378  0.45498  0.95910  Biso   1.000  O
  O93      1.0000 0.54327  0.03586  0.32951  Biso   1.000  O
  O94      1.0000 0.04379  0.73357  0.53964  Biso   1.000  O
  O95      1.0000 0.04379  0.25635  0.46036  Biso   1.000  O
