data_image0
_cell_length_a       42.9245
_cell_length_b       42.9245
_cell_length_c       42.9245
_cell_angle_alpha    90
_cell_angle_beta     90
_cell_angle_gamma    90

_symmetry_space_group_name_H-M    "P 1"
_symmetry_int_tables_number       1

loop_
  _symmetry_equiv_pos_as_xyz
  'x, y, z'

loop_
  _atom_site_label
  _atom_site_occupancy
  _atom_site_fract_x
  _atom_site_fract_y
  _atom_site_fract_z
  _atom_site_thermal_displace_type
  _atom_site_B_iso_or_equiv
  _atom_site_type_symbol
  C1       1.0000 0.25000  0.33370  0.25000  Biso   1.000  C
  C2       1.0000 0.75000  0.66630  0.25000  Biso   1.000  C
  C3       1.0000 0.75000  0.33370  0.75000  Biso   1.000  C
  C4       1.0000 0.25000  0.66630  0.75000  Biso   1.000  C
  C5       1.0000 0.25000  0.25000  0.33370  Biso   1.000  C
  C6       1.0000 0.25000  0.75000  0.66630  Biso   1.000  C
  C7       1.0000 0.75000  0.75000  0.33370  Biso   1.000  C
  C8       1.0000 0.75000  0.25000  0.66630  Biso   1.000  C
  C9       1.0000 0.33370  0.25000  0.25000  Biso   1.000  C
  C10      1.0000 0.66630  0.25000  0.75000  Biso   1.000  C
  C11      1.0000 0.33370  0.75000  0.75000  Biso   1.000  C
  C12      1.0000 0.66630  0.75000  0.25000  Biso   1.000  C
  C13      1.0000 0.33370  0.25000  0.75000  Biso   1.000  C
  C14      1.0000 0.66630  0.75000  0.75000  Biso   1.000  C
  C15      1.0000 0.33370  0.75000  0.25000  Biso   1.000  C
  C16      1.0000 0.66630  0.25000  0.25000  Biso   1.000  C
  C17      1.0000 0.25000  0.25000  0.66630  Biso   1.000  C
  C18      1.0000 0.75000  0.25000  0.33370  Biso   1.000  C
  C19      1.0000 0.75000  0.75000  0.66630  Biso   1.000  C
  C20      1.0000 0.25000  0.75000  0.33370  Biso   1.000  C
  C21      1.0000 0.25000  0.33370  0.75000  Biso   1.000  C
  C22      1.0000 0.25000  0.66630  0.25000  Biso   1.000  C
  C23      1.0000 0.75000  0.33370  0.25000  Biso   1.000  C
  C24      1.0000 0.75000  0.66630  0.75000  Biso   1.000  C
  C25      1.0000 0.25000  0.83370  0.75000  Biso   1.000  C
  C26      1.0000 0.75000  0.16630  0.75000  Biso   1.000  C
  C27      1.0000 0.75000  0.83370  0.25000  Biso   1.000  C
  C28      1.0000 0.25000  0.16630  0.25000  Biso   1.000  C
  C29      1.0000 0.25000  0.75000  0.83370  Biso   1.000  C
  C30      1.0000 0.25000  0.25000  0.16630  Biso   1.000  C
  C31      1.0000 0.75000  0.25000  0.83370  Biso   1.000  C
  C32      1.0000 0.75000  0.75000  0.16630  Biso   1.000  C
  C33      1.0000 0.25000  0.75000  0.16630  Biso   1.000  C
  C34      1.0000 0.75000  0.75000  0.83370  Biso   1.000  C
  C35      1.0000 0.75000  0.25000  0.16630  Biso   1.000  C
  C36      1.0000 0.25000  0.25000  0.83370  Biso   1.000  C
  C37      1.0000 0.25000  0.83370  0.25000  Biso   1.000  C
  C38      1.0000 0.25000  0.16630  0.75000  Biso   1.000  C
  C39      1.0000 0.75000  0.83370  0.75000  Biso   1.000  C
  C40      1.0000 0.75000  0.16630  0.25000  Biso   1.000  C
  C41      1.0000 0.83370  0.25000  0.75000  Biso   1.000  C
  C42      1.0000 0.16630  0.25000  0.25000  Biso   1.000  C
  C43      1.0000 0.83370  0.75000  0.25000  Biso   1.000  C
  C44      1.0000 0.16630  0.75000  0.75000  Biso   1.000  C
  C45      1.0000 0.83370  0.25000  0.25000  Biso   1.000  C
  C46      1.0000 0.16630  0.75000  0.25000  Biso   1.000  C
  C47      1.0000 0.83370  0.75000  0.75000  Biso   1.000  C
  C48      1.0000 0.16630  0.25000  0.75000  Biso   1.000  C
  C49      1.0000 0.25000  0.36640  0.25000  Biso   1.000  C
  C50      1.0000 0.75000  0.63360  0.25000  Biso   1.000  C
  C51      1.0000 0.75000  0.36640  0.75000  Biso   1.000  C
  C52      1.0000 0.25000  0.63360  0.75000  Biso   1.000  C
  C53      1.0000 0.25000  0.25000  0.36640  Biso   1.000  C
  C54      1.0000 0.25000  0.75000  0.63360  Biso   1.000  C
  C55      1.0000 0.75000  0.75000  0.36640  Biso   1.000  C
  C56      1.0000 0.75000  0.25000  0.63360  Biso   1.000  C
  C57      1.0000 0.36640  0.25000  0.25000  Biso   1.000  C
  C58      1.0000 0.63360  0.25000  0.75000  Biso   1.000  C
  C59      1.0000 0.36640  0.75000  0.75000  Biso   1.000  C
  C60      1.0000 0.63360  0.75000  0.25000  Biso   1.000  C
  C61      1.0000 0.36640  0.25000  0.75000  Biso   1.000  C
  C62      1.0000 0.63360  0.75000  0.75000  Biso   1.000  C
  C63      1.0000 0.36640  0.75000  0.25000  Biso   1.000  C
  C64      1.0000 0.63360  0.25000  0.25000  Biso   1.000  C
  C65      1.0000 0.25000  0.25000  0.63360  Biso   1.000  C
  C66      1.0000 0.75000  0.25000  0.36640  Biso   1.000  C
  C67      1.0000 0.75000  0.75000  0.63360  Biso   1.000  C
  C68      1.0000 0.25000  0.75000  0.36640  Biso   1.000  C
  C69      1.0000 0.25000  0.36640  0.75000  Biso   1.000  C
  C70      1.0000 0.25000  0.63360  0.25000  Biso   1.000  C
  C71      1.0000 0.75000  0.36640  0.25000  Biso   1.000  C
  C72      1.0000 0.75000  0.63360  0.75000  Biso   1.000  C
  C73      1.0000 0.25000  0.86640  0.75000  Biso   1.000  C
  C74      1.0000 0.75000  0.13360  0.75000  Biso   1.000  C
  C75      1.0000 0.75000  0.86640  0.25000  Biso   1.000  C
  C76      1.0000 0.25000  0.13360  0.25000  Biso   1.000  C
  C77      1.0000 0.25000  0.75000  0.86640  Biso   1.000  C
  C78      1.0000 0.25000  0.25000  0.13360  Biso   1.000  C
  C79      1.0000 0.75000  0.25000  0.86640  Biso   1.000  C
  C80      1.0000 0.75000  0.75000  0.13360  Biso   1.000  C
  C81      1.0000 0.25000  0.75000  0.13360  Biso   1.000  C
  C82      1.0000 0.75000  0.75000  0.86640  Biso   1.000  C
  C83      1.0000 0.75000  0.25000  0.13360  Biso   1.000  C
  C84      1.0000 0.25000  0.25000  0.86640  Biso   1.000  C
  C85      1.0000 0.25000  0.86640  0.25000  Biso   1.000  C
  C86      1.0000 0.25000  0.13360  0.75000  Biso   1.000  C
  C87      1.0000 0.75000  0.86640  0.75000  Biso   1.000  C
  C88      1.0000 0.75000  0.13360  0.25000  Biso   1.000  C
  C89      1.0000 0.86640  0.25000  0.75000  Biso   1.000  C
  C90      1.0000 0.13360  0.25000  0.25000  Biso   1.000  C
  C91      1.0000 0.86640  0.75000  0.25000  Biso   1.000  C
  C92      1.0000 0.13360  0.75000  0.75000  Biso   1.000  C
  C93      1.0000 0.86640  0.25000  0.25000  Biso   1.000  C
  C94      1.0000 0.13360  0.75000  0.25000  Biso   1.000  C
  C95      1.0000 0.86640  0.75000  0.75000  Biso   1.000  C
  C96      1.0000 0.13360  0.25000  0.75000  Biso   1.000  C
  C97      1.0000 0.23130  0.38390  0.26870  Biso   1.000  C
  C98      1.0000 0.76870  0.61610  0.26870  Biso   1.000  C
  C99      1.0000 0.76870  0.38390  0.73130  Biso   1.000  C
  C100     1.0000 0.23130  0.61610  0.73130  Biso   1.000  C
  C101     1.0000 0.26870  0.23130  0.38390  Biso   1.000  C
  C102     1.0000 0.26870  0.76870  0.61610  Biso   1.000  C
  C103     1.0000 0.73130  0.76870  0.38390  Biso   1.000  C
  C104     1.0000 0.73130  0.23130  0.61610  Biso   1.000  C
  C105     1.0000 0.38390  0.26870  0.23130  Biso   1.000  C
  C106     1.0000 0.61610  0.26870  0.76870  Biso   1.000  C
  C107     1.0000 0.38390  0.73130  0.76870  Biso   1.000  C
  C108     1.0000 0.61610  0.73130  0.23130  Biso   1.000  C
  C109     1.0000 0.38390  0.23130  0.73130  Biso   1.000  C
  C110     1.0000 0.61610  0.76870  0.73130  Biso   1.000  C
  C111     1.0000 0.38390  0.76870  0.26870  Biso   1.000  C
  C112     1.0000 0.61610  0.23130  0.26870  Biso   1.000  C
  C113     1.0000 0.23130  0.26870  0.61610  Biso   1.000  C
  C114     1.0000 0.76870  0.26870  0.38390  Biso   1.000  C
  C115     1.0000 0.76870  0.73130  0.61610  Biso   1.000  C
  C116     1.0000 0.23130  0.73130  0.38390  Biso   1.000  C
  C117     1.0000 0.26870  0.38390  0.76870  Biso   1.000  C
  C118     1.0000 0.26870  0.61610  0.23130  Biso   1.000  C
  C119     1.0000 0.73130  0.38390  0.23130  Biso   1.000  C
  C120     1.0000 0.73130  0.61610  0.76870  Biso   1.000  C
  C121     1.0000 0.23130  0.88390  0.76870  Biso   1.000  C
  C122     1.0000 0.76870  0.11610  0.76870  Biso   1.000  C
  C123     1.0000 0.76870  0.88390  0.23130  Biso   1.000  C
  C124     1.0000 0.23130  0.11610  0.23130  Biso   1.000  C
  C125     1.0000 0.26870  0.73130  0.88390  Biso   1.000  C
  C126     1.0000 0.26870  0.26870  0.11610  Biso   1.000  C
  C127     1.0000 0.73130  0.26870  0.88390  Biso   1.000  C
  C128     1.0000 0.73130  0.73130  0.11610  Biso   1.000  C
  C129     1.0000 0.38390  0.76870  0.73130  Biso   1.000  C
  C130     1.0000 0.61610  0.76870  0.26870  Biso   1.000  C
  C131     1.0000 0.38390  0.23130  0.26870  Biso   1.000  C
  C132     1.0000 0.61610  0.23130  0.73130  Biso   1.000  C
  C133     1.0000 0.38390  0.73130  0.23130  Biso   1.000  C
  C134     1.0000 0.61610  0.26870  0.23130  Biso   1.000  C
  C135     1.0000 0.38390  0.26870  0.76870  Biso   1.000  C
  C136     1.0000 0.61610  0.73130  0.76870  Biso   1.000  C
  C137     1.0000 0.23130  0.76870  0.11610  Biso   1.000  C
  C138     1.0000 0.76870  0.76870  0.88390  Biso   1.000  C
  C139     1.0000 0.76870  0.23130  0.11610  Biso   1.000  C
  C140     1.0000 0.23130  0.23130  0.88390  Biso   1.000  C
  C141     1.0000 0.26870  0.88390  0.26870  Biso   1.000  C
  C142     1.0000 0.26870  0.11610  0.73130  Biso   1.000  C
  C143     1.0000 0.73130  0.88390  0.73130  Biso   1.000  C
  C144     1.0000 0.73130  0.11610  0.26870  Biso   1.000  C
  C145     1.0000 0.73130  0.38390  0.76870  Biso   1.000  C
  C146     1.0000 0.26870  0.61610  0.76870  Biso   1.000  C
  C147     1.0000 0.26870  0.38390  0.23130  Biso   1.000  C
  C148     1.0000 0.73130  0.61610  0.23130  Biso   1.000  C
  C149     1.0000 0.76870  0.23130  0.88390  Biso   1.000  C
  C150     1.0000 0.76870  0.76870  0.11610  Biso   1.000  C
  C151     1.0000 0.23130  0.76870  0.88390  Biso   1.000  C
  C152     1.0000 0.23130  0.23130  0.11610  Biso   1.000  C
  C153     1.0000 0.88390  0.26870  0.73130  Biso   1.000  C
  C154     1.0000 0.11610  0.26870  0.26870  Biso   1.000  C
  C155     1.0000 0.88390  0.73130  0.26870  Biso   1.000  C
  C156     1.0000 0.11610  0.73130  0.73130  Biso   1.000  C
  C157     1.0000 0.88390  0.23130  0.23130  Biso   1.000  C
  C158     1.0000 0.11610  0.76870  0.23130  Biso   1.000  C
  C159     1.0000 0.88390  0.76870  0.76870  Biso   1.000  C
  C160     1.0000 0.11610  0.23130  0.76870  Biso   1.000  C
  C161     1.0000 0.73130  0.26870  0.11610  Biso   1.000  C
  C162     1.0000 0.26870  0.26870  0.88390  Biso   1.000  C
  C163     1.0000 0.26870  0.73130  0.11610  Biso   1.000  C
  C164     1.0000 0.73130  0.73130  0.88390  Biso   1.000  C
  C165     1.0000 0.76870  0.38390  0.26870  Biso   1.000  C
  C166     1.0000 0.76870  0.61610  0.73130  Biso   1.000  C
  C167     1.0000 0.23130  0.38390  0.73130  Biso   1.000  C
  C168     1.0000 0.23130  0.61610  0.26870  Biso   1.000  C
  C169     1.0000 0.73130  0.88390  0.26870  Biso   1.000  C
  C170     1.0000 0.26870  0.11610  0.26870  Biso   1.000  C
  C171     1.0000 0.26870  0.88390  0.73130  Biso   1.000  C
  C172     1.0000 0.73130  0.11610  0.73130  Biso   1.000  C
  C173     1.0000 0.76870  0.73130  0.38390  Biso   1.000  C
  C174     1.0000 0.76870  0.26870  0.61610  Biso   1.000  C
  C175     1.0000 0.23130  0.26870  0.38390  Biso   1.000  C
  C176     1.0000 0.23130  0.73130  0.61610  Biso   1.000  C
  C177     1.0000 0.88390  0.76870  0.23130  Biso   1.000  C
  C178     1.0000 0.11610  0.76870  0.76870  Biso   1.000  C
  C179     1.0000 0.88390  0.23130  0.76870  Biso   1.000  C
  C180     1.0000 0.11610  0.23130  0.23130  Biso   1.000  C
  C181     1.0000 0.88390  0.73130  0.73130  Biso   1.000  C
  C182     1.0000 0.11610  0.26870  0.73130  Biso   1.000  C
  C183     1.0000 0.88390  0.26870  0.26870  Biso   1.000  C
  C184     1.0000 0.11610  0.73130  0.26870  Biso   1.000  C
  C185     1.0000 0.73130  0.76870  0.61610  Biso   1.000  C
  C186     1.0000 0.26870  0.76870  0.38390  Biso   1.000  C
  C187     1.0000 0.26870  0.23130  0.61610  Biso   1.000  C
  C188     1.0000 0.73130  0.23130  0.38390  Biso   1.000  C
  C189     1.0000 0.76870  0.88390  0.76870  Biso   1.000  C
  C190     1.0000 0.76870  0.11610  0.23130  Biso   1.000  C
  C191     1.0000 0.23130  0.88390  0.23130  Biso   1.000  C
  C192     1.0000 0.23130  0.11610  0.76870  Biso   1.000  C
  C193     1.0000 0.21780  0.37380  0.28220  Biso   1.000  C
  C194     1.0000 0.78220  0.62620  0.28220  Biso   1.000  C
  C195     1.0000 0.78220  0.37380  0.71780  Biso   1.000  C
  C196     1.0000 0.21780  0.62620  0.71780  Biso   1.000  C
  C197     1.0000 0.28220  0.21780  0.37380  Biso   1.000  C
  C198     1.0000 0.28220  0.78220  0.62620  Biso   1.000  C
  C199     1.0000 0.71780  0.78220  0.37380  Biso   1.000  C
  C200     1.0000 0.71780  0.21780  0.62620  Biso   1.000  C
  C201     1.0000 0.37380  0.28220  0.21780  Biso   1.000  C
  C202     1.0000 0.62620  0.28220  0.78220  Biso   1.000  C
  C203     1.0000 0.37380  0.71780  0.78220  Biso   1.000  C
  C204     1.0000 0.62620  0.71780  0.21780  Biso   1.000  C
  C205     1.0000 0.37380  0.21780  0.71780  Biso   1.000  C
  C206     1.0000 0.62620  0.78220  0.71780  Biso   1.000  C
  C207     1.0000 0.37380  0.78220  0.28220  Biso   1.000  C
  C208     1.0000 0.62620  0.21780  0.28220  Biso   1.000  C
  C209     1.0000 0.21780  0.28220  0.62620  Biso   1.000  C
  C210     1.0000 0.78220  0.28220  0.37380  Biso   1.000  C
  C211     1.0000 0.78220  0.71780  0.62620  Biso   1.000  C
  C212     1.0000 0.21780  0.71780  0.37380  Biso   1.000  C
  C213     1.0000 0.28220  0.37380  0.78220  Biso   1.000  C
  C214     1.0000 0.28220  0.62620  0.21780  Biso   1.000  C
  C215     1.0000 0.71780  0.37380  0.21780  Biso   1.000  C
  C216     1.0000 0.71780  0.62620  0.78220  Biso   1.000  C
  C217     1.0000 0.21780  0.87380  0.78220  Biso   1.000  C
  C218     1.0000 0.78220  0.12620  0.78220  Biso   1.000  C
  C219     1.0000 0.78220  0.87380  0.21780  Biso   1.000  C
  C220     1.0000 0.21780  0.12620  0.21780  Biso   1.000  C
  C221     1.0000 0.28220  0.71780  0.87380  Biso   1.000  C
  C222     1.0000 0.28220  0.28220  0.12620  Biso   1.000  C
  C223     1.0000 0.71780  0.28220  0.87380  Biso   1.000  C
  C224     1.0000 0.71780  0.71780  0.12620  Biso   1.000  C
  C225     1.0000 0.37380  0.78220  0.71780  Biso   1.000  C
  C226     1.0000 0.62620  0.78220  0.28220  Biso   1.000  C
  C227     1.0000 0.37380  0.21780  0.28220  Biso   1.000  C
  C228     1.0000 0.62620  0.21780  0.71780  Biso   1.000  C
  C229     1.0000 0.37380  0.71780  0.21780  Biso   1.000  C
  C230     1.0000 0.62620  0.28220  0.21780  Biso   1.000  C
  C231     1.0000 0.37380  0.28220  0.78220  Biso   1.000  C
  C232     1.0000 0.62620  0.71780  0.78220  Biso   1.000  C
  C233     1.0000 0.21780  0.78220  0.12620  Biso   1.000  C
  C234     1.0000 0.78220  0.78220  0.87380  Biso   1.000  C
  C235     1.0000 0.78220  0.21780  0.12620  Biso   1.000  C
  C236     1.0000 0.21780  0.21780  0.87380  Biso   1.000  C
  C237     1.0000 0.28220  0.87380  0.28220  Biso   1.000  C
  C238     1.0000 0.28220  0.12620  0.71780  Biso   1.000  C
  C239     1.0000 0.71780  0.87380  0.71780  Biso   1.000  C
  C240     1.0000 0.71780  0.12620  0.28220  Biso   1.000  C
  C241     1.0000 0.71780  0.37380  0.78220  Biso   1.000  C
  C242     1.0000 0.28220  0.62620  0.78220  Biso   1.000  C
  C243     1.0000 0.28220  0.37380  0.21780  Biso   1.000  C
  C244     1.0000 0.71780  0.62620  0.21780  Biso   1.000  C
  C245     1.0000 0.78220  0.21780  0.87380  Biso   1.000  C
  C246     1.0000 0.78220  0.78220  0.12620  Biso   1.000  C
  C247     1.0000 0.21780  0.78220  0.87380  Biso   1.000  C
  C248     1.0000 0.21780  0.21780  0.12620  Biso   1.000  C
  C249     1.0000 0.87380  0.28220  0.71780  Biso   1.000  C
  C250     1.0000 0.12620  0.28220  0.28220  Biso   1.000  C
  C251     1.0000 0.87380  0.71780  0.28220  Biso   1.000  C
  C252     1.0000 0.12620  0.71780  0.71780  Biso   1.000  C
  C253     1.0000 0.87380  0.21780  0.21780  Biso   1.000  C
  C254     1.0000 0.12620  0.78220  0.21780  Biso   1.000  C
  C255     1.0000 0.87380  0.78220  0.78220  Biso   1.000  C
  C256     1.0000 0.12620  0.21780  0.78220  Biso   1.000  C
  C257     1.0000 0.71780  0.28220  0.12620  Biso   1.000  C
  C258     1.0000 0.28220  0.28220  0.87380  Biso   1.000  C
  C259     1.0000 0.28220  0.71780  0.12620  Biso   1.000  C
  C260     1.0000 0.71780  0.71780  0.87380  Biso   1.000  C
  C261     1.0000 0.78220  0.37380  0.28220  Biso   1.000  C
  C262     1.0000 0.78220  0.62620  0.71780  Biso   1.000  C
  C263     1.0000 0.21780  0.37380  0.71780  Biso   1.000  C
  C264     1.0000 0.21780  0.62620  0.28220  Biso   1.000  C
  C265     1.0000 0.71780  0.87380  0.28220  Biso   1.000  C
  C266     1.0000 0.28220  0.12620  0.28220  Biso   1.000  C
  C267     1.0000 0.28220  0.87380  0.71780  Biso   1.000  C
  C268     1.0000 0.71780  0.12620  0.71780  Biso   1.000  C
  C269     1.0000 0.78220  0.71780  0.37380  Biso   1.000  C
  C270     1.0000 0.78220  0.28220  0.62620  Biso   1.000  C
  C271     1.0000 0.21780  0.28220  0.37380  Biso   1.000  C
  C272     1.0000 0.21780  0.71780  0.62620  Biso   1.000  C
  C273     1.0000 0.87380  0.78220  0.21780  Biso   1.000  C
  C274     1.0000 0.12620  0.78220  0.78220  Biso   1.000  C
  C275     1.0000 0.87380  0.21780  0.78220  Biso   1.000  C
  C276     1.0000 0.12620  0.21780  0.21780  Biso   1.000  C
  C277     1.0000 0.87380  0.71780  0.71780  Biso   1.000  C
  C278     1.0000 0.12620  0.28220  0.71780  Biso   1.000  C
  C279     1.0000 0.87380  0.28220  0.28220  Biso   1.000  C
  C280     1.0000 0.12620  0.71780  0.28220  Biso   1.000  C
  C281     1.0000 0.71780  0.78220  0.62620  Biso   1.000  C
  C282     1.0000 0.28220  0.78220  0.37380  Biso   1.000  C
  C283     1.0000 0.28220  0.21780  0.62620  Biso   1.000  C
  C284     1.0000 0.71780  0.21780  0.37380  Biso   1.000  C
  C285     1.0000 0.78220  0.87380  0.78220  Biso   1.000  C
  C286     1.0000 0.78220  0.12620  0.21780  Biso   1.000  C
  C287     1.0000 0.21780  0.87380  0.21780  Biso   1.000  C
  C288     1.0000 0.21780  0.12620  0.78220  Biso   1.000  C
  C289     1.0000 0.23180  0.41710  0.26820  Biso   1.000  C
  C290     1.0000 0.76820  0.58290  0.26820  Biso   1.000  C
  C291     1.0000 0.76820  0.41710  0.73180  Biso   1.000  C
  C292     1.0000 0.23180  0.58290  0.73180  Biso   1.000  C
  C293     1.0000 0.26820  0.23180  0.41710  Biso   1.000  C
  C294     1.0000 0.26820  0.76820  0.58290  Biso   1.000  C
  C295     1.0000 0.73180  0.76820  0.41710  Biso   1.000  C
  C296     1.0000 0.73180  0.23180  0.58290  Biso   1.000  C
  C297     1.0000 0.41710  0.26820  0.23180  Biso   1.000  C
  C298     1.0000 0.58290  0.26820  0.76820  Biso   1.000  C
  C299     1.0000 0.41710  0.73180  0.76820  Biso   1.000  C
  C300     1.0000 0.58290  0.73180  0.23180  Biso   1.000  C
  C301     1.0000 0.41710  0.23180  0.73180  Biso   1.000  C
  C302     1.0000 0.58290  0.76820  0.73180  Biso   1.000  C
  C303     1.0000 0.41710  0.76820  0.26820  Biso   1.000  C
  C304     1.0000 0.58290  0.23180  0.26820  Biso   1.000  C
  C305     1.0000 0.23180  0.26820  0.58290  Biso   1.000  C
  C306     1.0000 0.76820  0.26820  0.41710  Biso   1.000  C
  C307     1.0000 0.76820  0.73180  0.58290  Biso   1.000  C
  C308     1.0000 0.23180  0.73180  0.41710  Biso   1.000  C
  C309     1.0000 0.26820  0.41710  0.76820  Biso   1.000  C
  C310     1.0000 0.26820  0.58290  0.23180  Biso   1.000  C
  C311     1.0000 0.73180  0.41710  0.23180  Biso   1.000  C
  C312     1.0000 0.73180  0.58290  0.76820  Biso   1.000  C
  C313     1.0000 0.23180  0.91710  0.76820  Biso   1.000  C
  C314     1.0000 0.76820  0.08290  0.76820  Biso   1.000  C
  C315     1.0000 0.76820  0.91710  0.23180  Biso   1.000  C
  C316     1.0000 0.23180  0.08290  0.23180  Biso   1.000  C
  C317     1.0000 0.26820  0.73180  0.91710  Biso   1.000  C
  C318     1.0000 0.26820  0.26820  0.08290  Biso   1.000  C
  C319     1.0000 0.73180  0.26820  0.91710  Biso   1.000  C
  C320     1.0000 0.73180  0.73180  0.08290  Biso   1.000  C
  C321     1.0000 0.41710  0.76820  0.73180  Biso   1.000  C
  C322     1.0000 0.58290  0.76820  0.26820  Biso   1.000  C
  C323     1.0000 0.41710  0.23180  0.26820  Biso   1.000  C
  C324     1.0000 0.58290  0.23180  0.73180  Biso   1.000  C
  C325     1.0000 0.41710  0.73180  0.23180  Biso   1.000  C
  C326     1.0000 0.58290  0.26820  0.23180  Biso   1.000  C
  C327     1.0000 0.41710  0.26820  0.76820  Biso   1.000  C
  C328     1.0000 0.58290  0.73180  0.76820  Biso   1.000  C
  C329     1.0000 0.23180  0.76820  0.08290  Biso   1.000  C
  C330     1.0000 0.76820  0.76820  0.91710  Biso   1.000  C
  C331     1.0000 0.76820  0.23180  0.08290  Biso   1.000  C
  C332     1.0000 0.23180  0.23180  0.91710  Biso   1.000  C
  C333     1.0000 0.26820  0.91710  0.26820  Biso   1.000  C
  C334     1.0000 0.26820  0.08290  0.73180  Biso   1.000  C
  C335     1.0000 0.73180  0.91710  0.73180  Biso   1.000  C
  C336     1.0000 0.73180  0.08290  0.26820  Biso   1.000  C
  C337     1.0000 0.73180  0.41710  0.76820  Biso   1.000  C
  C338     1.0000 0.26820  0.58290  0.76820  Biso   1.000  C
  C339     1.0000 0.26820  0.41710  0.23180  Biso   1.000  C
  C340     1.0000 0.73180  0.58290  0.23180  Biso   1.000  C
  C341     1.0000 0.76820  0.23180  0.91710  Biso   1.000  C
  C342     1.0000 0.76820  0.76820  0.08290  Biso   1.000  C
  C343     1.0000 0.23180  0.76820  0.91710  Biso   1.000  C
  C344     1.0000 0.23180  0.23180  0.08290  Biso   1.000  C
  C345     1.0000 0.91710  0.26820  0.73180  Biso   1.000  C
  C346     1.0000 0.08290  0.26820  0.26820  Biso   1.000  C
  C347     1.0000 0.91710  0.73180  0.26820  Biso   1.000  C
  C348     1.0000 0.08290  0.73180  0.73180  Biso   1.000  C
  C349     1.0000 0.91710  0.23180  0.23180  Biso   1.000  C
  C350     1.0000 0.08290  0.76820  0.23180  Biso   1.000  C
  C351     1.0000 0.91710  0.76820  0.76820  Biso   1.000  C
  C352     1.0000 0.08290  0.23180  0.76820  Biso   1.000  C
  C353     1.0000 0.73180  0.26820  0.08290  Biso   1.000  C
  C354     1.0000 0.26820  0.26820  0.91710  Biso   1.000  C
  C355     1.0000 0.26820  0.73180  0.08290  Biso   1.000  C
  C356     1.0000 0.73180  0.73180  0.91710  Biso   1.000  C
  C357     1.0000 0.76820  0.41710  0.26820  Biso   1.000  C
  C358     1.0000 0.76820  0.58290  0.73180  Biso   1.000  C
  C359     1.0000 0.23180  0.41710  0.73180  Biso   1.000  C
  C360     1.0000 0.23180  0.58290  0.26820  Biso   1.000  C
  C361     1.0000 0.73180  0.91710  0.26820  Biso   1.000  C
  C362     1.0000 0.26820  0.08290  0.26820  Biso   1.000  C
  C363     1.0000 0.26820  0.91710  0.73180  Biso   1.000  C
  C364     1.0000 0.73180  0.08290  0.73180  Biso   1.000  C
  C365     1.0000 0.76820  0.73180  0.41710  Biso   1.000  C
  C366     1.0000 0.76820  0.26820  0.58290  Biso   1.000  C
  C367     1.0000 0.23180  0.26820  0.41710  Biso   1.000  C
  C368     1.0000 0.23180  0.73180  0.58290  Biso   1.000  C
  C369     1.0000 0.91710  0.76820  0.23180  Biso   1.000  C
  C370     1.0000 0.08290  0.76820  0.76820  Biso   1.000  C
  C371     1.0000 0.91710  0.23180  0.76820  Biso   1.000  C
  C372     1.0000 0.08290  0.23180  0.23180  Biso   1.000  C
  C373     1.0000 0.91710  0.73180  0.73180  Biso   1.000  C
  C374     1.0000 0.08290  0.26820  0.73180  Biso   1.000  C
  C375     1.0000 0.91710  0.26820  0.26820  Biso   1.000  C
  C376     1.0000 0.08290  0.73180  0.26820  Biso   1.000  C
  C377     1.0000 0.73180  0.76820  0.58290  Biso   1.000  C
  C378     1.0000 0.26820  0.76820  0.41710  Biso   1.000  C
  C379     1.0000 0.26820  0.23180  0.58290  Biso   1.000  C
  C380     1.0000 0.73180  0.23180  0.41710  Biso   1.000  C
  C381     1.0000 0.76820  0.91710  0.76820  Biso   1.000  C
  C382     1.0000 0.76820  0.08290  0.23180  Biso   1.000  C
  C383     1.0000 0.23180  0.91710  0.23180  Biso   1.000  C
  C384     1.0000 0.23180  0.08290  0.76820  Biso   1.000  C
  C385     1.0000 0.21830  0.42730  0.28170  Biso   1.000  C
  C386     1.0000 0.78170  0.57270  0.28170  Biso   1.000  C
  C387     1.0000 0.78170  0.42730  0.71830  Biso   1.000  C
  C388     1.0000 0.21830  0.57270  0.71830  Biso   1.000  C
  C389     1.0000 0.28170  0.21830  0.42730  Biso   1.000  C
  C390     1.0000 0.28170  0.78170  0.57270  Biso   1.000  C
  C391     1.0000 0.71830  0.78170  0.42730  Biso   1.000  C
  C392     1.0000 0.71830  0.21830  0.57270  Biso   1.000  C
  C393     1.0000 0.42730  0.28170  0.21830  Biso   1.000  C
  C394     1.0000 0.57270  0.28170  0.78170  Biso   1.000  C
  C395     1.0000 0.42730  0.71830  0.78170  Biso   1.000  C
  C396     1.0000 0.57270  0.71830  0.21830  Biso   1.000  C
  C397     1.0000 0.42730  0.21830  0.71830  Biso   1.000  C
  C398     1.0000 0.57270  0.78170  0.71830  Biso   1.000  C
  C399     1.0000 0.42730  0.78170  0.28170  Biso   1.000  C
  C400     1.0000 0.57270  0.21830  0.28170  Biso   1.000  C
  C401     1.0000 0.21830  0.28170  0.57270  Biso   1.000  C
  C402     1.0000 0.78170  0.28170  0.42730  Biso   1.000  C
  C403     1.0000 0.78170  0.71830  0.57270  Biso   1.000  C
  C404     1.0000 0.21830  0.71830  0.42730  Biso   1.000  C
  C405     1.0000 0.28170  0.42730  0.78170  Biso   1.000  C
  C406     1.0000 0.28170  0.57270  0.21830  Biso   1.000  C
  C407     1.0000 0.71830  0.42730  0.21830  Biso   1.000  C
  C408     1.0000 0.71830  0.57270  0.78170  Biso   1.000  C
  C409     1.0000 0.21830  0.92730  0.78170  Biso   1.000  C
  C410     1.0000 0.78170  0.07270  0.78170  Biso   1.000  C
  C411     1.0000 0.78170  0.92730  0.21830  Biso   1.000  C
  C412     1.0000 0.21830  0.07270  0.21830  Biso   1.000  C
  C413     1.0000 0.28170  0.71830  0.92730  Biso   1.000  C
  C414     1.0000 0.28170  0.28170  0.07270  Biso   1.000  C
  C415     1.0000 0.71830  0.28170  0.92730  Biso   1.000  C
  C416     1.0000 0.71830  0.71830  0.07270  Biso   1.000  C
  C417     1.0000 0.42730  0.78170  0.71830  Biso   1.000  C
  C418     1.0000 0.57270  0.78170  0.28170  Biso   1.000  C
  C419     1.0000 0.42730  0.21830  0.28170  Biso   1.000  C
  C420     1.0000 0.57270  0.21830  0.71830  Biso   1.000  C
  C421     1.0000 0.42730  0.71830  0.21830  Biso   1.000  C
  C422     1.0000 0.57270  0.28170  0.21830  Biso   1.000  C
  C423     1.0000 0.42730  0.28170  0.78170  Biso   1.000  C
  C424     1.0000 0.57270  0.71830  0.78170  Biso   1.000  C
  C425     1.0000 0.21830  0.78170  0.07270  Biso   1.000  C
  C426     1.0000 0.78170  0.78170  0.92730  Biso   1.000  C
  C427     1.0000 0.78170  0.21830  0.07270  Biso   1.000  C
  C428     1.0000 0.21830  0.21830  0.92730  Biso   1.000  C
  C429     1.0000 0.28170  0.92730  0.28170  Biso   1.000  C
  C430     1.0000 0.28170  0.07270  0.71830  Biso   1.000  C
  C431     1.0000 0.71830  0.92730  0.71830  Biso   1.000  C
  C432     1.0000 0.71830  0.07270  0.28170  Biso   1.000  C
  C433     1.0000 0.71830  0.42730  0.78170  Biso   1.000  C
  C434     1.0000 0.28170  0.57270  0.78170  Biso   1.000  C
  C435     1.0000 0.28170  0.42730  0.21830  Biso   1.000  C
  C436     1.0000 0.71830  0.57270  0.21830  Biso   1.000  C
  C437     1.0000 0.78170  0.21830  0.92730  Biso   1.000  C
  C438     1.0000 0.78170  0.78170  0.07270  Biso   1.000  C
  C439     1.0000 0.21830  0.78170  0.92730  Biso   1.000  C
  C440     1.0000 0.21830  0.21830  0.07270  Biso   1.000  C
  C441     1.0000 0.92730  0.28170  0.71830  Biso   1.000  C
  C442     1.0000 0.07270  0.28170  0.28170  Biso   1.000  C
  C443     1.0000 0.92730  0.71830  0.28170  Biso   1.000  C
  C444     1.0000 0.07270  0.71830  0.71830  Biso   1.000  C
  C445     1.0000 0.92730  0.21830  0.21830  Biso   1.000  C
  C446     1.0000 0.07270  0.78170  0.21830  Biso   1.000  C
  C447     1.0000 0.92730  0.78170  0.78170  Biso   1.000  C
  C448     1.0000 0.07270  0.21830  0.78170  Biso   1.000  C
  C449     1.0000 0.71830  0.28170  0.07270  Biso   1.000  C
  C450     1.0000 0.28170  0.28170  0.92730  Biso   1.000  C
  C451     1.0000 0.28170  0.71830  0.07270  Biso   1.000  C
  C452     1.0000 0.71830  0.71830  0.92730  Biso   1.000  C
  C453     1.0000 0.78170  0.42730  0.28170  Biso   1.000  C
  C454     1.0000 0.78170  0.57270  0.71830  Biso   1.000  C
  C455     1.0000 0.21830  0.42730  0.71830  Biso   1.000  C
  C456     1.0000 0.21830  0.57270  0.28170  Biso   1.000  C
  C457     1.0000 0.71830  0.92730  0.28170  Biso   1.000  C
  C458     1.0000 0.28170  0.07270  0.28170  Biso   1.000  C
  C459     1.0000 0.28170  0.92730  0.71830  Biso   1.000  C
  C460     1.0000 0.71830  0.07270  0.71830  Biso   1.000  C
  C461     1.0000 0.78170  0.71830  0.42730  Biso   1.000  C
  C462     1.0000 0.78170  0.28170  0.57270  Biso   1.000  C
  C463     1.0000 0.21830  0.28170  0.42730  Biso   1.000  C
  C464     1.0000 0.21830  0.71830  0.57270  Biso   1.000  C
  C465     1.0000 0.92730  0.78170  0.21830  Biso   1.000  C
  C466     1.0000 0.07270  0.78170  0.78170  Biso   1.000  C
  C467     1.0000 0.92730  0.21830  0.78170  Biso   1.000  C
  C468     1.0000 0.07270  0.21830  0.21830  Biso   1.000  C
  C469     1.0000 0.92730  0.71830  0.71830  Biso   1.000  C
  C470     1.0000 0.07270  0.28170  0.71830  Biso   1.000  C
  C471     1.0000 0.92730  0.28170  0.28170  Biso   1.000  C
  C472     1.0000 0.07270  0.71830  0.28170  Biso   1.000  C
  C473     1.0000 0.71830  0.78170  0.57270  Biso   1.000  C
  C474     1.0000 0.28170  0.78170  0.42730  Biso   1.000  C
  C475     1.0000 0.28170  0.21830  0.57270  Biso   1.000  C
  C476     1.0000 0.71830  0.21830  0.42730  Biso   1.000  C
  C477     1.0000 0.78170  0.92730  0.78170  Biso   1.000  C
  C478     1.0000 0.78170  0.07270  0.21830  Biso   1.000  C
  C479     1.0000 0.21830  0.92730  0.21830  Biso   1.000  C
  C480     1.0000 0.21830  0.07270  0.78170  Biso   1.000  C
  C481     1.0000 0.25000  0.43510  0.25000  Biso   1.000  C
  C482     1.0000 0.75000  0.56490  0.25000  Biso   1.000  C
  C483     1.0000 0.75000  0.43510  0.75000  Biso   1.000  C
  C484     1.0000 0.25000  0.56490  0.75000  Biso   1.000  C
  C485     1.0000 0.25000  0.25000  0.43510  Biso   1.000  C
  C486     1.0000 0.25000  0.75000  0.56490  Biso   1.000  C
  C487     1.0000 0.75000  0.75000  0.43510  Biso   1.000  C
  C488     1.0000 0.75000  0.25000  0.56490  Biso   1.000  C
  C489     1.0000 0.43510  0.25000  0.25000  Biso   1.000  C
  C490     1.0000 0.56490  0.25000  0.75000  Biso   1.000  C
  C491     1.0000 0.43510  0.75000  0.75000  Biso   1.000  C
  C492     1.0000 0.56490  0.75000  0.25000  Biso   1.000  C
  C493     1.0000 0.43510  0.25000  0.75000  Biso   1.000  C
  C494     1.0000 0.56490  0.75000  0.75000  Biso   1.000  C
  C495     1.0000 0.43510  0.75000  0.25000  Biso   1.000  C
  C496     1.0000 0.56490  0.25000  0.25000  Biso   1.000  C
  C497     1.0000 0.25000  0.25000  0.56490  Biso   1.000  C
  C498     1.0000 0.75000  0.25000  0.43510  Biso   1.000  C
  C499     1.0000 0.75000  0.75000  0.56490  Biso   1.000  C
  C500     1.0000 0.25000  0.75000  0.43510  Biso   1.000  C
  C501     1.0000 0.25000  0.43510  0.75000  Biso   1.000  C
  C502     1.0000 0.25000  0.56490  0.25000  Biso   1.000  C
  C503     1.0000 0.75000  0.43510  0.25000  Biso   1.000  C
  C504     1.0000 0.75000  0.56490  0.75000  Biso   1.000  C
  C505     1.0000 0.25000  0.93510  0.75000  Biso   1.000  C
  C506     1.0000 0.75000  0.06490  0.75000  Biso   1.000  C
  C507     1.0000 0.75000  0.93510  0.25000  Biso   1.000  C
  C508     1.0000 0.25000  0.06490  0.25000  Biso   1.000  C
  C509     1.0000 0.25000  0.75000  0.93510  Biso   1.000  C
  C510     1.0000 0.25000  0.25000  0.06490  Biso   1.000  C
  C511     1.0000 0.75000  0.25000  0.93510  Biso   1.000  C
  C512     1.0000 0.75000  0.75000  0.06490  Biso   1.000  C
  C513     1.0000 0.25000  0.75000  0.06490  Biso   1.000  C
  C514     1.0000 0.75000  0.75000  0.93510  Biso   1.000  C
  C515     1.0000 0.75000  0.25000  0.06490  Biso   1.000  C
  C516     1.0000 0.25000  0.25000  0.93510  Biso   1.000  C
  C517     1.0000 0.25000  0.93510  0.25000  Biso   1.000  C
  C518     1.0000 0.25000  0.06490  0.75000  Biso   1.000  C
  C519     1.0000 0.75000  0.93510  0.75000  Biso   1.000  C
  C520     1.0000 0.75000  0.06490  0.25000  Biso   1.000  C
  C521     1.0000 0.93510  0.25000  0.75000  Biso   1.000  C
  C522     1.0000 0.06490  0.25000  0.25000  Biso   1.000  C
  C523     1.0000 0.93510  0.75000  0.25000  Biso   1.000  C
  C524     1.0000 0.06490  0.75000  0.75000  Biso   1.000  C
  C525     1.0000 0.93510  0.25000  0.25000  Biso   1.000  C
  C526     1.0000 0.06490  0.75000  0.25000  Biso   1.000  C
  C527     1.0000 0.93510  0.75000  0.75000  Biso   1.000  C
  C528     1.0000 0.06490  0.25000  0.75000  Biso   1.000  C
  C529     1.0000 0.25000  0.46720  0.25000  Biso   1.000  C
  C530     1.0000 0.75000  0.53280  0.25000  Biso   1.000  C
  C531     1.0000 0.75000  0.46720  0.75000  Biso   1.000  C
  C532     1.0000 0.25000  0.53280  0.75000  Biso   1.000  C
  C533     1.0000 0.25000  0.25000  0.46720  Biso   1.000  C
  C534     1.0000 0.25000  0.75000  0.53280  Biso   1.000  C
  C535     1.0000 0.75000  0.75000  0.46720  Biso   1.000  C
  C536     1.0000 0.75000  0.25000  0.53280  Biso   1.000  C
  C537     1.0000 0.46720  0.25000  0.25000  Biso   1.000  C
  C538     1.0000 0.53280  0.25000  0.75000  Biso   1.000  C
  C539     1.0000 0.46720  0.75000  0.75000  Biso   1.000  C
  C540     1.0000 0.53280  0.75000  0.25000  Biso   1.000  C
  C541     1.0000 0.46720  0.25000  0.75000  Biso   1.000  C
  C542     1.0000 0.53280  0.75000  0.75000  Biso   1.000  C
  C543     1.0000 0.46720  0.75000  0.25000  Biso   1.000  C
  C544     1.0000 0.53280  0.25000  0.25000  Biso   1.000  C
  C545     1.0000 0.25000  0.25000  0.53280  Biso   1.000  C
  C546     1.0000 0.75000  0.25000  0.46720  Biso   1.000  C
  C547     1.0000 0.75000  0.75000  0.53280  Biso   1.000  C
  C548     1.0000 0.25000  0.75000  0.46720  Biso   1.000  C
  C549     1.0000 0.25000  0.46720  0.75000  Biso   1.000  C
  C550     1.0000 0.25000  0.53280  0.25000  Biso   1.000  C
  C551     1.0000 0.75000  0.46720  0.25000  Biso   1.000  C
  C552     1.0000 0.75000  0.53280  0.75000  Biso   1.000  C
  C553     1.0000 0.25000  0.96720  0.75000  Biso   1.000  C
  C554     1.0000 0.75000  0.03280  0.75000  Biso   1.000  C
  C555     1.0000 0.75000  0.96720  0.25000  Biso   1.000  C
  C556     1.0000 0.25000  0.03280  0.25000  Biso   1.000  C
  C557     1.0000 0.25000  0.75000  0.96720  Biso   1.000  C
  C558     1.0000 0.25000  0.25000  0.03280  Biso   1.000  C
  C559     1.0000 0.75000  0.25000  0.96720  Biso   1.000  C
  C560     1.0000 0.75000  0.75000  0.03280  Biso   1.000  C
  C561     1.0000 0.25000  0.75000  0.03280  Biso   1.000  C
  C562     1.0000 0.75000  0.75000  0.96720  Biso   1.000  C
  C563     1.0000 0.75000  0.25000  0.03280  Biso   1.000  C
  C564     1.0000 0.25000  0.25000  0.96720  Biso   1.000  C
  C565     1.0000 0.25000  0.96720  0.25000  Biso   1.000  C
  C566     1.0000 0.25000  0.03280  0.75000  Biso   1.000  C
  C567     1.0000 0.75000  0.96720  0.75000  Biso   1.000  C
  C568     1.0000 0.75000  0.03280  0.25000  Biso   1.000  C
  C569     1.0000 0.96720  0.25000  0.75000  Biso   1.000  C
  C570     1.0000 0.03280  0.25000  0.25000  Biso   1.000  C
  C571     1.0000 0.96720  0.75000  0.25000  Biso   1.000  C
  C572     1.0000 0.03280  0.75000  0.75000  Biso   1.000  C
  C573     1.0000 0.96720  0.25000  0.25000  Biso   1.000  C
  C574     1.0000 0.03280  0.75000  0.25000  Biso   1.000  C
  C575     1.0000 0.96720  0.75000  0.75000  Biso   1.000  C
  C576     1.0000 0.03280  0.25000  0.75000  Biso   1.000  C
  C577     1.0000 0.23060  0.48340  0.23060  Biso   1.000  C
  C578     1.0000 0.76940  0.51660  0.23060  Biso   1.000  C
  C579     1.0000 0.76940  0.48340  0.76940  Biso   1.000  C
  C580     1.0000 0.23060  0.51660  0.76940  Biso   1.000  C
  C581     1.0000 0.23060  0.23060  0.48340  Biso   1.000  C
  C582     1.0000 0.23060  0.76940  0.51660  Biso   1.000  C
  C583     1.0000 0.76940  0.76940  0.48340  Biso   1.000  C
  C584     1.0000 0.76940  0.23060  0.51660  Biso   1.000  C
  C585     1.0000 0.48340  0.23060  0.23060  Biso   1.000  C
  C586     1.0000 0.51660  0.23060  0.76940  Biso   1.000  C
  C587     1.0000 0.48340  0.76940  0.76940  Biso   1.000  C
  C588     1.0000 0.51660  0.76940  0.23060  Biso   1.000  C
  C589     1.0000 0.48340  0.23060  0.76940  Biso   1.000  C
  C590     1.0000 0.51660  0.76940  0.76940  Biso   1.000  C
  C591     1.0000 0.48340  0.76940  0.23060  Biso   1.000  C
  C592     1.0000 0.51660  0.23060  0.23060  Biso   1.000  C
  C593     1.0000 0.23060  0.23060  0.51660  Biso   1.000  C
  C594     1.0000 0.76940  0.23060  0.48340  Biso   1.000  C
  C595     1.0000 0.76940  0.76940  0.51660  Biso   1.000  C
  C596     1.0000 0.23060  0.76940  0.48340  Biso   1.000  C
  C597     1.0000 0.23060  0.48340  0.76940  Biso   1.000  C
  C598     1.0000 0.23060  0.51660  0.23060  Biso   1.000  C
  C599     1.0000 0.76940  0.48340  0.23060  Biso   1.000  C
  C600     1.0000 0.76940  0.51660  0.76940  Biso   1.000  C
  C601     1.0000 0.23060  0.98340  0.73060  Biso   1.000  C
  C602     1.0000 0.76940  0.01660  0.73060  Biso   1.000  C
  C603     1.0000 0.76940  0.98340  0.26940  Biso   1.000  C
  C604     1.0000 0.23060  0.01660  0.26940  Biso   1.000  C
  C605     1.0000 0.23060  0.73060  0.98340  Biso   1.000  C
  C606     1.0000 0.23060  0.26940  0.01660  Biso   1.000  C
  C607     1.0000 0.76940  0.26940  0.98340  Biso   1.000  C
  C608     1.0000 0.76940  0.73060  0.01660  Biso   1.000  C
  C609     1.0000 0.48340  0.73060  0.73060  Biso   1.000  C
  C610     1.0000 0.51660  0.73060  0.26940  Biso   1.000  C
  C611     1.0000 0.48340  0.26940  0.26940  Biso   1.000  C
  C612     1.0000 0.51660  0.26940  0.73060  Biso   1.000  C
  C613     1.0000 0.48340  0.73060  0.26940  Biso   1.000  C
  C614     1.0000 0.51660  0.26940  0.26940  Biso   1.000  C
  C615     1.0000 0.48340  0.26940  0.73060  Biso   1.000  C
  C616     1.0000 0.51660  0.73060  0.73060  Biso   1.000  C
  C617     1.0000 0.23060  0.73060  0.01660  Biso   1.000  C
  C618     1.0000 0.76940  0.73060  0.98340  Biso   1.000  C
  C619     1.0000 0.76940  0.26940  0.01660  Biso   1.000  C
  C620     1.0000 0.23060  0.26940  0.98340  Biso   1.000  C
  C621     1.0000 0.23060  0.98340  0.26940  Biso   1.000  C
  C622     1.0000 0.23060  0.01660  0.73060  Biso   1.000  C
  C623     1.0000 0.76940  0.98340  0.73060  Biso   1.000  C
  C624     1.0000 0.76940  0.01660  0.26940  Biso   1.000  C
  C625     1.0000 0.73060  0.48340  0.73060  Biso   1.000  C
  C626     1.0000 0.26940  0.51660  0.73060  Biso   1.000  C
  C627     1.0000 0.26940  0.48340  0.26940  Biso   1.000  C
  C628     1.0000 0.73060  0.51660  0.26940  Biso   1.000  C
  C629     1.0000 0.73060  0.23060  0.98340  Biso   1.000  C
  C630     1.0000 0.73060  0.76940  0.01660  Biso   1.000  C
  C631     1.0000 0.26940  0.76940  0.98340  Biso   1.000  C
  C632     1.0000 0.26940  0.23060  0.01660  Biso   1.000  C
  C633     1.0000 0.98340  0.23060  0.73060  Biso   1.000  C
  C634     1.0000 0.01660  0.23060  0.26940  Biso   1.000  C
  C635     1.0000 0.98340  0.76940  0.26940  Biso   1.000  C
  C636     1.0000 0.01660  0.76940  0.73060  Biso   1.000  C
  C637     1.0000 0.98340  0.23060  0.26940  Biso   1.000  C
  C638     1.0000 0.01660  0.76940  0.26940  Biso   1.000  C
  C639     1.0000 0.98340  0.76940  0.73060  Biso   1.000  C
  C640     1.0000 0.01660  0.23060  0.73060  Biso   1.000  C
  C641     1.0000 0.73060  0.23060  0.01660  Biso   1.000  C
  C642     1.0000 0.26940  0.23060  0.98340  Biso   1.000  C
  C643     1.0000 0.26940  0.76940  0.01660  Biso   1.000  C
  C644     1.0000 0.73060  0.76940  0.98340  Biso   1.000  C
  C645     1.0000 0.73060  0.48340  0.26940  Biso   1.000  C
  C646     1.0000 0.73060  0.51660  0.73060  Biso   1.000  C
  C647     1.0000 0.26940  0.48340  0.73060  Biso   1.000  C
  C648     1.0000 0.26940  0.51660  0.26940  Biso   1.000  C
  C649     1.0000 0.73060  0.98340  0.23060  Biso   1.000  C
  C650     1.0000 0.26940  0.01660  0.23060  Biso   1.000  C
  C651     1.0000 0.26940  0.98340  0.76940  Biso   1.000  C
  C652     1.0000 0.73060  0.01660  0.76940  Biso   1.000  C
  C653     1.0000 0.73060  0.73060  0.48340  Biso   1.000  C
  C654     1.0000 0.73060  0.26940  0.51660  Biso   1.000  C
  C655     1.0000 0.26940  0.26940  0.48340  Biso   1.000  C
  C656     1.0000 0.26940  0.73060  0.51660  Biso   1.000  C
  C657     1.0000 0.98340  0.73060  0.23060  Biso   1.000  C
  C658     1.0000 0.01660  0.73060  0.76940  Biso   1.000  C
  C659     1.0000 0.98340  0.26940  0.76940  Biso   1.000  C
  C660     1.0000 0.01660  0.26940  0.23060  Biso   1.000  C
  C661     1.0000 0.98340  0.73060  0.76940  Biso   1.000  C
  C662     1.0000 0.01660  0.26940  0.76940  Biso   1.000  C
  C663     1.0000 0.98340  0.26940  0.23060  Biso   1.000  C
  C664     1.0000 0.01660  0.73060  0.23060  Biso   1.000  C
  C665     1.0000 0.73060  0.73060  0.51660  Biso   1.000  C
  C666     1.0000 0.26940  0.73060  0.48340  Biso   1.000  C
  C667     1.0000 0.26940  0.26940  0.51660  Biso   1.000  C
  C668     1.0000 0.73060  0.26940  0.48340  Biso   1.000  C
  C669     1.0000 0.73060  0.98340  0.76940  Biso   1.000  C
  C670     1.0000 0.73060  0.01660  0.23060  Biso   1.000  C
  C671     1.0000 0.26940  0.98340  0.23060  Biso   1.000  C
  C672     1.0000 0.26940  0.01660  0.76940  Biso   1.000  C
  C673     1.0000 0.19200  0.50000  0.19200  Biso   1.000  C
  C674     1.0000 0.80800  0.50000  0.19200  Biso   1.000  C
  C675     1.0000 0.80800  0.50000  0.80800  Biso   1.000  C
  C676     1.0000 0.19200  0.50000  0.80800  Biso   1.000  C
  C677     1.0000 0.19200  0.19200  0.50000  Biso   1.000  C
  C678     1.0000 0.19200  0.80800  0.50000  Biso   1.000  C
  C679     1.0000 0.80800  0.80800  0.50000  Biso   1.000  C
  C680     1.0000 0.80800  0.19200  0.50000  Biso   1.000  C
  C681     1.0000 0.50000  0.19200  0.19200  Biso   1.000  C
  C682     1.0000 0.50000  0.19200  0.80800  Biso   1.000  C
  C683     1.0000 0.50000  0.80800  0.80800  Biso   1.000  C
  C684     1.0000 0.50000  0.80800  0.19200  Biso   1.000  C
  C685     1.0000 0.19200  0.00000  0.69200  Biso   1.000  C
  C686     1.0000 0.80800  0.00000  0.69200  Biso   1.000  C
  C687     1.0000 0.80800  0.00000  0.30800  Biso   1.000  C
  C688     1.0000 0.19200  0.00000  0.30800  Biso   1.000  C
  C689     1.0000 0.19200  0.69200  0.00000  Biso   1.000  C
  C690     1.0000 0.19200  0.30800  0.00000  Biso   1.000  C
  C691     1.0000 0.80800  0.30800  0.00000  Biso   1.000  C
  C692     1.0000 0.80800  0.69200  0.00000  Biso   1.000  C
  C693     1.0000 0.50000  0.69200  0.69200  Biso   1.000  C
  C694     1.0000 0.50000  0.69200  0.30800  Biso   1.000  C
  C695     1.0000 0.50000  0.30800  0.30800  Biso   1.000  C
  C696     1.0000 0.50000  0.30800  0.69200  Biso   1.000  C
  C697     1.0000 0.69200  0.50000  0.69200  Biso   1.000  C
  C698     1.0000 0.30800  0.50000  0.69200  Biso   1.000  C
  C699     1.0000 0.30800  0.50000  0.30800  Biso   1.000  C
  C700     1.0000 0.69200  0.50000  0.30800  Biso   1.000  C
  C701     1.0000 0.69200  0.19200  0.00000  Biso   1.000  C
  C702     1.0000 0.69200  0.80800  0.00000  Biso   1.000  C
  C703     1.0000 0.30800  0.80800  0.00000  Biso   1.000  C
  C704     1.0000 0.30800  0.19200  0.00000  Biso   1.000  C
  C705     1.0000 0.00000  0.19200  0.69200  Biso   1.000  C
  C706     1.0000 0.00000  0.19200  0.30800  Biso   1.000  C
  C707     1.0000 0.00000  0.80800  0.30800  Biso   1.000  C
  C708     1.0000 0.00000  0.80800  0.69200  Biso   1.000  C
  C709     1.0000 0.69200  0.00000  0.19200  Biso   1.000  C
  C710     1.0000 0.30800  0.00000  0.19200  Biso   1.000  C
  C711     1.0000 0.30800  0.00000  0.80800  Biso   1.000  C
  C712     1.0000 0.69200  0.00000  0.80800  Biso   1.000  C
  C713     1.0000 0.69200  0.69200  0.50000  Biso   1.000  C
  C714     1.0000 0.69200  0.30800  0.50000  Biso   1.000  C
  C715     1.0000 0.30800  0.30800  0.50000  Biso   1.000  C
  C716     1.0000 0.30800  0.69200  0.50000  Biso   1.000  C
  C717     1.0000 0.00000  0.69200  0.19200  Biso   1.000  C
  C718     1.0000 0.00000  0.69200  0.80800  Biso   1.000  C
  C719     1.0000 0.00000  0.30800  0.80800  Biso   1.000  C
  C720     1.0000 0.00000  0.30800  0.19200  Biso   1.000  C
  C721     1.0000 0.17620  0.50000  0.17620  Biso   1.000  C
  C722     1.0000 0.82380  0.50000  0.17620  Biso   1.000  C
  C723     1.0000 0.82380  0.50000  0.82380  Biso   1.000  C
  C724     1.0000 0.17620  0.50000  0.82380  Biso   1.000  C
  C725     1.0000 0.17620  0.17620  0.50000  Biso   1.000  C
  C726     1.0000 0.17620  0.82380  0.50000  Biso   1.000  C
  C727     1.0000 0.82380  0.82380  0.50000  Biso   1.000  C
  C728     1.0000 0.82380  0.17620  0.50000  Biso   1.000  C
  C729     1.0000 0.50000  0.17620  0.17620  Biso   1.000  C
  C730     1.0000 0.50000  0.17620  0.82380  Biso   1.000  C
  C731     1.0000 0.50000  0.82380  0.82380  Biso   1.000  C
  C732     1.0000 0.50000  0.82380  0.17620  Biso   1.000  C
  C733     1.0000 0.17620  0.00000  0.67620  Biso   1.000  C
  C734     1.0000 0.82380  0.00000  0.67620  Biso   1.000  C
  C735     1.0000 0.82380  0.00000  0.32380  Biso   1.000  C
  C736     1.0000 0.17620  0.00000  0.32380  Biso   1.000  C
  C737     1.0000 0.17620  0.67620  0.00000  Biso   1.000  C
  C738     1.0000 0.17620  0.32380  0.00000  Biso   1.000  C
  C739     1.0000 0.82380  0.32380  0.00000  Biso   1.000  C
  C740     1.0000 0.82380  0.67620  0.00000  Biso   1.000  C
  C741     1.0000 0.50000  0.67620  0.67620  Biso   1.000  C
  C742     1.0000 0.50000  0.67620  0.32380  Biso   1.000  C
  C743     1.0000 0.50000  0.32380  0.32380  Biso   1.000  C
  C744     1.0000 0.50000  0.32380  0.67620  Biso   1.000  C
  C745     1.0000 0.67620  0.50000  0.67620  Biso   1.000  C
  C746     1.0000 0.32380  0.50000  0.67620  Biso   1.000  C
  C747     1.0000 0.32380  0.50000  0.32380  Biso   1.000  C
  C748     1.0000 0.67620  0.50000  0.32380  Biso   1.000  C
  C749     1.0000 0.67620  0.17620  0.00000  Biso   1.000  C
  C750     1.0000 0.67620  0.82380  0.00000  Biso   1.000  C
  C751     1.0000 0.32380  0.82380  0.00000  Biso   1.000  C
  C752     1.0000 0.32380  0.17620  0.00000  Biso   1.000  C
  C753     1.0000 0.00000  0.17620  0.67620  Biso   1.000  C
  C754     1.0000 0.00000  0.17620  0.32380  Biso   1.000  C
  C755     1.0000 0.00000  0.82380  0.32380  Biso   1.000  C
  C756     1.0000 0.00000  0.82380  0.67620  Biso   1.000  C
  C757     1.0000 0.67620  0.00000  0.17620  Biso   1.000  C
  C758     1.0000 0.32380  0.00000  0.17620  Biso   1.000  C
  C759     1.0000 0.32380  0.00000  0.82380  Biso   1.000  C
  C760     1.0000 0.67620  0.00000  0.82380  Biso   1.000  C
  C761     1.0000 0.67620  0.67620  0.50000  Biso   1.000  C
  C762     1.0000 0.67620  0.32380  0.50000  Biso   1.000  C
  C763     1.0000 0.32380  0.32380  0.50000  Biso   1.000  C
  C764     1.0000 0.32380  0.67620  0.50000  Biso   1.000  C
  C765     1.0000 0.00000  0.67620  0.17620  Biso   1.000  C
  C766     1.0000 0.00000  0.67620  0.82380  Biso   1.000  C
  C767     1.0000 0.00000  0.32380  0.82380  Biso   1.000  C
  C768     1.0000 0.00000  0.32380  0.17620  Biso   1.000  C
  C769     1.0000 0.19280  0.44280  0.19280  Biso   1.000  C
  C770     1.0000 0.80720  0.55720  0.19280  Biso   1.000  C
  C771     1.0000 0.80720  0.44280  0.80720  Biso   1.000  C
  C772     1.0000 0.19280  0.55720  0.80720  Biso   1.000  C
  C773     1.0000 0.19280  0.19280  0.44280  Biso   1.000  C
  C774     1.0000 0.19280  0.80720  0.55720  Biso   1.000  C
  C775     1.0000 0.80720  0.80720  0.44280  Biso   1.000  C
  C776     1.0000 0.80720  0.19280  0.55720  Biso   1.000  C
  C777     1.0000 0.44280  0.19280  0.19280  Biso   1.000  C
  C778     1.0000 0.55720  0.19280  0.80720  Biso   1.000  C
  C779     1.0000 0.44280  0.80720  0.80720  Biso   1.000  C
  C780     1.0000 0.55720  0.80720  0.19280  Biso   1.000  C
  C781     1.0000 0.44280  0.19280  0.80720  Biso   1.000  C
  C782     1.0000 0.55720  0.80720  0.80720  Biso   1.000  C
  C783     1.0000 0.44280  0.80720  0.19280  Biso   1.000  C
  C784     1.0000 0.55720  0.19280  0.19280  Biso   1.000  C
  C785     1.0000 0.19280  0.19280  0.55720  Biso   1.000  C
  C786     1.0000 0.80720  0.19280  0.44280  Biso   1.000  C
  C787     1.0000 0.80720  0.80720  0.55720  Biso   1.000  C
  C788     1.0000 0.19280  0.80720  0.44280  Biso   1.000  C
  C789     1.0000 0.19280  0.44280  0.80720  Biso   1.000  C
  C790     1.0000 0.19280  0.55720  0.19280  Biso   1.000  C
  C791     1.0000 0.80720  0.44280  0.19280  Biso   1.000  C
  C792     1.0000 0.80720  0.55720  0.80720  Biso   1.000  C
  C793     1.0000 0.19280  0.94280  0.69280  Biso   1.000  C
  C794     1.0000 0.80720  0.05720  0.69280  Biso   1.000  C
  C795     1.0000 0.80720  0.94280  0.30720  Biso   1.000  C
  C796     1.0000 0.19280  0.05720  0.30720  Biso   1.000  C
  C797     1.0000 0.19280  0.69280  0.94280  Biso   1.000  C
  C798     1.0000 0.19280  0.30720  0.05720  Biso   1.000  C
  C799     1.0000 0.80720  0.30720  0.94280  Biso   1.000  C
  C800     1.0000 0.80720  0.69280  0.05720  Biso   1.000  C
  C801     1.0000 0.44280  0.69280  0.69280  Biso   1.000  C
  C802     1.0000 0.55720  0.69280  0.30720  Biso   1.000  C
  C803     1.0000 0.44280  0.30720  0.30720  Biso   1.000  C
  C804     1.0000 0.55720  0.30720  0.69280  Biso   1.000  C
  C805     1.0000 0.44280  0.69280  0.30720  Biso   1.000  C
  C806     1.0000 0.55720  0.30720  0.30720  Biso   1.000  C
  C807     1.0000 0.44280  0.30720  0.69280  Biso   1.000  C
  C808     1.0000 0.55720  0.69280  0.69280  Biso   1.000  C
  C809     1.0000 0.19280  0.69280  0.05720  Biso   1.000  C
  C810     1.0000 0.80720  0.69280  0.94280  Biso   1.000  C
  C811     1.0000 0.80720  0.30720  0.05720  Biso   1.000  C
  C812     1.0000 0.19280  0.30720  0.94280  Biso   1.000  C
  C813     1.0000 0.19280  0.94280  0.30720  Biso   1.000  C
  C814     1.0000 0.19280  0.05720  0.69280  Biso   1.000  C
  C815     1.0000 0.80720  0.94280  0.69280  Biso   1.000  C
  C816     1.0000 0.80720  0.05720  0.30720  Biso   1.000  C
  C817     1.0000 0.69280  0.44280  0.69280  Biso   1.000  C
  C818     1.0000 0.30720  0.55720  0.69280  Biso   1.000  C
  C819     1.0000 0.30720  0.44280  0.30720  Biso   1.000  C
  C820     1.0000 0.69280  0.55720  0.30720  Biso   1.000  C
  C821     1.0000 0.69280  0.19280  0.94280  Biso   1.000  C
  C822     1.0000 0.69280  0.80720  0.05720  Biso   1.000  C
  C823     1.0000 0.30720  0.80720  0.94280  Biso   1.000  C
  C824     1.0000 0.30720  0.19280  0.05720  Biso   1.000  C
  C825     1.0000 0.94280  0.19280  0.69280  Biso   1.000  C
  C826     1.0000 0.05720  0.19280  0.30720  Biso   1.000  C
  C827     1.0000 0.94280  0.80720  0.30720  Biso   1.000  C
  C828     1.0000 0.05720  0.80720  0.69280  Biso   1.000  C
  C829     1.0000 0.94280  0.19280  0.30720  Biso   1.000  C
  C830     1.0000 0.05720  0.80720  0.30720  Biso   1.000  C
  C831     1.0000 0.94280  0.80720  0.69280  Biso   1.000  C
  C832     1.0000 0.05720  0.19280  0.69280  Biso   1.000  C
  C833     1.0000 0.69280  0.19280  0.05720  Biso   1.000  C
  C834     1.0000 0.30720  0.19280  0.94280  Biso   1.000  C
  C835     1.0000 0.30720  0.80720  0.05720  Biso   1.000  C
  C836     1.0000 0.69280  0.80720  0.94280  Biso   1.000  C
  C837     1.0000 0.69280  0.44280  0.30720  Biso   1.000  C
  C838     1.0000 0.69280  0.55720  0.69280  Biso   1.000  C
  C839     1.0000 0.30720  0.44280  0.69280  Biso   1.000  C
  C840     1.0000 0.30720  0.55720  0.30720  Biso   1.000  C
  C841     1.0000 0.69280  0.94280  0.19280  Biso   1.000  C
  C842     1.0000 0.30720  0.05720  0.19280  Biso   1.000  C
  C843     1.0000 0.30720  0.94280  0.80720  Biso   1.000  C
  C844     1.0000 0.69280  0.05720  0.80720  Biso   1.000  C
  C845     1.0000 0.69280  0.69280  0.44280  Biso   1.000  C
  C846     1.0000 0.69280  0.30720  0.55720  Biso   1.000  C
  C847     1.0000 0.30720  0.30720  0.44280  Biso   1.000  C
  C848     1.0000 0.30720  0.69280  0.55720  Biso   1.000  C
  C849     1.0000 0.94280  0.69280  0.19280  Biso   1.000  C
  C850     1.0000 0.05720  0.69280  0.80720  Biso   1.000  C
  C851     1.0000 0.94280  0.30720  0.80720  Biso   1.000  C
  C852     1.0000 0.05720  0.30720  0.19280  Biso   1.000  C
  C853     1.0000 0.94280  0.69280  0.80720  Biso   1.000  C
  C854     1.0000 0.05720  0.30720  0.80720  Biso   1.000  C
  C855     1.0000 0.94280  0.30720  0.19280  Biso   1.000  C
  C856     1.0000 0.05720  0.69280  0.19280  Biso   1.000  C
  C857     1.0000 0.69280  0.69280  0.55720  Biso   1.000  C
  C858     1.0000 0.30720  0.69280  0.44280  Biso   1.000  C
  C859     1.0000 0.30720  0.30720  0.55720  Biso   1.000  C
  C860     1.0000 0.69280  0.30720  0.44280  Biso   1.000  C
  C861     1.0000 0.69280  0.94280  0.80720  Biso   1.000  C
  C862     1.0000 0.69280  0.05720  0.19280  Biso   1.000  C
  C863     1.0000 0.30720  0.94280  0.19280  Biso   1.000  C
  C864     1.0000 0.30720  0.05720  0.80720  Biso   1.000  C
  C865     1.0000 0.19740  0.44190  0.17090  Biso   1.000  C
  C866     1.0000 0.80260  0.55810  0.17090  Biso   1.000  C
  C867     1.0000 0.80260  0.44190  0.82910  Biso   1.000  C
  C868     1.0000 0.19740  0.55810  0.82910  Biso   1.000  C
  C869     1.0000 0.17090  0.19740  0.44190  Biso   1.000  C
  C870     1.0000 0.17090  0.80260  0.55810  Biso   1.000  C
  C871     1.0000 0.82910  0.80260  0.44190  Biso   1.000  C
  C872     1.0000 0.82910  0.19740  0.55810  Biso   1.000  C
  C873     1.0000 0.44190  0.17090  0.19740  Biso   1.000  C
  C874     1.0000 0.55810  0.17090  0.80260  Biso   1.000  C
  C875     1.0000 0.44190  0.82910  0.80260  Biso   1.000  C
  C876     1.0000 0.55810  0.82910  0.19740  Biso   1.000  C
  C877     1.0000 0.44190  0.19740  0.82910  Biso   1.000  C
  C878     1.0000 0.55810  0.80260  0.82910  Biso   1.000  C
  C879     1.0000 0.44190  0.80260  0.17090  Biso   1.000  C
  C880     1.0000 0.55810  0.19740  0.17090  Biso   1.000  C
  C881     1.0000 0.19740  0.17090  0.55810  Biso   1.000  C
  C882     1.0000 0.80260  0.17090  0.44190  Biso   1.000  C
  C883     1.0000 0.80260  0.82910  0.55810  Biso   1.000  C
  C884     1.0000 0.19740  0.82910  0.44190  Biso   1.000  C
  C885     1.0000 0.17090  0.44190  0.80260  Biso   1.000  C
  C886     1.0000 0.17090  0.55810  0.19740  Biso   1.000  C
  C887     1.0000 0.82910  0.44190  0.19740  Biso   1.000  C
  C888     1.0000 0.82910  0.55810  0.80260  Biso   1.000  C
  C889     1.0000 0.19740  0.94190  0.67090  Biso   1.000  C
  C890     1.0000 0.80260  0.05810  0.67090  Biso   1.000  C
  C891     1.0000 0.80260  0.94190  0.32910  Biso   1.000  C
  C892     1.0000 0.19740  0.05810  0.32910  Biso   1.000  C
  C893     1.0000 0.17090  0.69740  0.94190  Biso   1.000  C
  C894     1.0000 0.17090  0.30260  0.05810  Biso   1.000  C
  C895     1.0000 0.82910  0.30260  0.94190  Biso   1.000  C
  C896     1.0000 0.82910  0.69740  0.05810  Biso   1.000  C
  C897     1.0000 0.44190  0.67090  0.69740  Biso   1.000  C
  C898     1.0000 0.55810  0.67090  0.30260  Biso   1.000  C
  C899     1.0000 0.44190  0.32910  0.30260  Biso   1.000  C
  C900     1.0000 0.55810  0.32910  0.69740  Biso   1.000  C
  C901     1.0000 0.44190  0.69740  0.32910  Biso   1.000  C
  C902     1.0000 0.55810  0.30260  0.32910  Biso   1.000  C
  C903     1.0000 0.44190  0.30260  0.67090  Biso   1.000  C
  C904     1.0000 0.55810  0.69740  0.67090  Biso   1.000  C
  C905     1.0000 0.19740  0.67090  0.05810  Biso   1.000  C
  C906     1.0000 0.80260  0.67090  0.94190  Biso   1.000  C
  C907     1.0000 0.80260  0.32910  0.05810  Biso   1.000  C
  C908     1.0000 0.19740  0.32910  0.94190  Biso   1.000  C
  C909     1.0000 0.17090  0.94190  0.30260  Biso   1.000  C
  C910     1.0000 0.17090  0.05810  0.69740  Biso   1.000  C
  C911     1.0000 0.82910  0.94190  0.69740  Biso   1.000  C
  C912     1.0000 0.82910  0.05810  0.30260  Biso   1.000  C
  C913     1.0000 0.69740  0.44190  0.67090  Biso   1.000  C
  C914     1.0000 0.30260  0.55810  0.67090  Biso   1.000  C
  C915     1.0000 0.30260  0.44190  0.32910  Biso   1.000  C
  C916     1.0000 0.69740  0.55810  0.32910  Biso   1.000  C
  C917     1.0000 0.67090  0.19740  0.94190  Biso   1.000  C
  C918     1.0000 0.67090  0.80260  0.05810  Biso   1.000  C
  C919     1.0000 0.32910  0.80260  0.94190  Biso   1.000  C
  C920     1.0000 0.32910  0.19740  0.05810  Biso   1.000  C
  C921     1.0000 0.94190  0.17090  0.69740  Biso   1.000  C
  C922     1.0000 0.05810  0.17090  0.30260  Biso   1.000  C
  C923     1.0000 0.94190  0.82910  0.30260  Biso   1.000  C
  C924     1.0000 0.05810  0.82910  0.69740  Biso   1.000  C
  C925     1.0000 0.94190  0.19740  0.32910  Biso   1.000  C
  C926     1.0000 0.05810  0.80260  0.32910  Biso   1.000  C
  C927     1.0000 0.94190  0.80260  0.67090  Biso   1.000  C
  C928     1.0000 0.05810  0.19740  0.67090  Biso   1.000  C
  C929     1.0000 0.69740  0.17090  0.05810  Biso   1.000  C
  C930     1.0000 0.30260  0.17090  0.94190  Biso   1.000  C
  C931     1.0000 0.30260  0.82910  0.05810  Biso   1.000  C
  C932     1.0000 0.69740  0.82910  0.94190  Biso   1.000  C
  C933     1.0000 0.67090  0.44190  0.30260  Biso   1.000  C
  C934     1.0000 0.67090  0.55810  0.69740  Biso   1.000  C
  C935     1.0000 0.32910  0.44190  0.69740  Biso   1.000  C
  C936     1.0000 0.32910  0.55810  0.30260  Biso   1.000  C
  C937     1.0000 0.69740  0.94190  0.17090  Biso   1.000  C
  C938     1.0000 0.30260  0.05810  0.17090  Biso   1.000  C
  C939     1.0000 0.30260  0.94190  0.82910  Biso   1.000  C
  C940     1.0000 0.69740  0.05810  0.82910  Biso   1.000  C
  C941     1.0000 0.67090  0.69740  0.44190  Biso   1.000  C
  C942     1.0000 0.67090  0.30260  0.55810  Biso   1.000  C
  C943     1.0000 0.32910  0.30260  0.44190  Biso   1.000  C
  C944     1.0000 0.32910  0.69740  0.55810  Biso   1.000  C
  C945     1.0000 0.94190  0.67090  0.19740  Biso   1.000  C
  C946     1.0000 0.05810  0.67090  0.80260  Biso   1.000  C
  C947     1.0000 0.94190  0.32910  0.80260  Biso   1.000  C
  C948     1.0000 0.05810  0.32910  0.19740  Biso   1.000  C
  C949     1.0000 0.94190  0.69740  0.82910  Biso   1.000  C
  C950     1.0000 0.05810  0.30260  0.82910  Biso   1.000  C
  C951     1.0000 0.94190  0.30260  0.17090  Biso   1.000  C
  C952     1.0000 0.05810  0.69740  0.17090  Biso   1.000  C
  C953     1.0000 0.69740  0.67090  0.55810  Biso   1.000  C
  C954     1.0000 0.30260  0.67090  0.44190  Biso   1.000  C
  C955     1.0000 0.30260  0.32910  0.55810  Biso   1.000  C
  C956     1.0000 0.69740  0.32910  0.44190  Biso   1.000  C
  C957     1.0000 0.67090  0.94190  0.80260  Biso   1.000  C
  C958     1.0000 0.67090  0.05810  0.19740  Biso   1.000  C
  C959     1.0000 0.32910  0.94190  0.19740  Biso   1.000  C
  C960     1.0000 0.32910  0.05810  0.80260  Biso   1.000  C
  C961     1.0000 0.80260  0.55810  0.82910  Biso   1.000  C
  C962     1.0000 0.19740  0.44190  0.82910  Biso   1.000  C
  C963     1.0000 0.19740  0.55810  0.17090  Biso   1.000  C
  C964     1.0000 0.80260  0.44190  0.17090  Biso   1.000  C
  C965     1.0000 0.82910  0.80260  0.55810  Biso   1.000  C
  C966     1.0000 0.82910  0.19740  0.44190  Biso   1.000  C
  C967     1.0000 0.17090  0.19740  0.55810  Biso   1.000  C
  C968     1.0000 0.17090  0.80260  0.44190  Biso   1.000  C
  C969     1.0000 0.55810  0.82910  0.80260  Biso   1.000  C
  C970     1.0000 0.44190  0.82910  0.19740  Biso   1.000  C
  C971     1.0000 0.55810  0.17090  0.19740  Biso   1.000  C
  C972     1.0000 0.44190  0.17090  0.80260  Biso   1.000  C
  C973     1.0000 0.55810  0.80260  0.17090  Biso   1.000  C
  C974     1.0000 0.44190  0.19740  0.17090  Biso   1.000  C
  C975     1.0000 0.55810  0.19740  0.82910  Biso   1.000  C
  C976     1.0000 0.44190  0.80260  0.82910  Biso   1.000  C
  C977     1.0000 0.80260  0.82910  0.44190  Biso   1.000  C
  C978     1.0000 0.19740  0.82910  0.55810  Biso   1.000  C
  C979     1.0000 0.19740  0.17090  0.44190  Biso   1.000  C
  C980     1.0000 0.80260  0.17090  0.55810  Biso   1.000  C
  C981     1.0000 0.82910  0.55810  0.19740  Biso   1.000  C
  C982     1.0000 0.82910  0.44190  0.80260  Biso   1.000  C
  C983     1.0000 0.17090  0.55810  0.80260  Biso   1.000  C
  C984     1.0000 0.17090  0.44190  0.19740  Biso   1.000  C
  C985     1.0000 0.80260  0.05810  0.32910  Biso   1.000  C
  C986     1.0000 0.19740  0.94190  0.32910  Biso   1.000  C
  C987     1.0000 0.19740  0.05810  0.67090  Biso   1.000  C
  C988     1.0000 0.80260  0.94190  0.67090  Biso   1.000  C
  C989     1.0000 0.82910  0.30260  0.05810  Biso   1.000  C
  C990     1.0000 0.82910  0.69740  0.94190  Biso   1.000  C
  C991     1.0000 0.17090  0.69740  0.05810  Biso   1.000  C
  C992     1.0000 0.17090  0.30260  0.94190  Biso   1.000  C
  C993     1.0000 0.55810  0.32910  0.30260  Biso   1.000  C
  C994     1.0000 0.44190  0.32910  0.69740  Biso   1.000  C
  C995     1.0000 0.55810  0.67090  0.69740  Biso   1.000  C
  C996     1.0000 0.44190  0.67090  0.30260  Biso   1.000  C
  C997     1.0000 0.55810  0.30260  0.67090  Biso   1.000  C
  C998     1.0000 0.44190  0.69740  0.67090  Biso   1.000  C
  C999     1.0000 0.55810  0.69740  0.32910  Biso   1.000  C
  C1000    1.0000 0.44190  0.30260  0.32910  Biso   1.000  C
  C1001    1.0000 0.80260  0.32910  0.94190  Biso   1.000  C
  C1002    1.0000 0.19740  0.32910  0.05810  Biso   1.000  C
  C1003    1.0000 0.19740  0.67090  0.94190  Biso   1.000  C
  C1004    1.0000 0.80260  0.67090  0.05810  Biso   1.000  C
  C1005    1.0000 0.82910  0.05810  0.69740  Biso   1.000  C
  C1006    1.0000 0.82910  0.94190  0.30260  Biso   1.000  C
  C1007    1.0000 0.17090  0.05810  0.30260  Biso   1.000  C
  C1008    1.0000 0.17090  0.94190  0.69740  Biso   1.000  C
  C1009    1.0000 0.30260  0.55810  0.32910  Biso   1.000  C
  C1010    1.0000 0.69740  0.44190  0.32910  Biso   1.000  C
  C1011    1.0000 0.69740  0.55810  0.67090  Biso   1.000  C
  C1012    1.0000 0.30260  0.44190  0.67090  Biso   1.000  C
  C1013    1.0000 0.32910  0.80260  0.05810  Biso   1.000  C
  C1014    1.0000 0.32910  0.19740  0.94190  Biso   1.000  C
  C1015    1.0000 0.67090  0.19740  0.05810  Biso   1.000  C
  C1016    1.0000 0.67090  0.80260  0.94190  Biso   1.000  C
  C1017    1.0000 0.05810  0.82910  0.30260  Biso   1.000  C
  C1018    1.0000 0.94190  0.82910  0.69740  Biso   1.000  C
  C1019    1.0000 0.05810  0.17090  0.69740  Biso   1.000  C
  C1020    1.0000 0.94190  0.17090  0.30260  Biso   1.000  C
  C1021    1.0000 0.05810  0.80260  0.67090  Biso   1.000  C
  C1022    1.0000 0.94190  0.19740  0.67090  Biso   1.000  C
  C1023    1.0000 0.05810  0.19740  0.32910  Biso   1.000  C
  C1024    1.0000 0.94190  0.80260  0.32910  Biso   1.000  C
  C1025    1.0000 0.30260  0.82910  0.94190  Biso   1.000  C
  C1026    1.0000 0.69740  0.82910  0.05810  Biso   1.000  C
  C1027    1.0000 0.69740  0.17090  0.94190  Biso   1.000  C
  C1028    1.0000 0.30260  0.17090  0.05810  Biso   1.000  C
  C1029    1.0000 0.32910  0.55810  0.69740  Biso   1.000  C
  C1030    1.0000 0.32910  0.44190  0.30260  Biso   1.000  C
  C1031    1.0000 0.67090  0.55810  0.30260  Biso   1.000  C
  C1032    1.0000 0.67090  0.44190  0.69740  Biso   1.000  C
  C1033    1.0000 0.30260  0.05810  0.82910  Biso   1.000  C
  C1034    1.0000 0.69740  0.94190  0.82910  Biso   1.000  C
  C1035    1.0000 0.69740  0.05810  0.17090  Biso   1.000  C
  C1036    1.0000 0.30260  0.94190  0.17090  Biso   1.000  C
  C1037    1.0000 0.32910  0.30260  0.55810  Biso   1.000  C
  C1038    1.0000 0.32910  0.69740  0.44190  Biso   1.000  C
  C1039    1.0000 0.67090  0.69740  0.55810  Biso   1.000  C
  C1040    1.0000 0.67090  0.30260  0.44190  Biso   1.000  C
  C1041    1.0000 0.05810  0.32910  0.80260  Biso   1.000  C
  C1042    1.0000 0.94190  0.32910  0.19740  Biso   1.000  C
  C1043    1.0000 0.05810  0.67090  0.19740  Biso   1.000  C
  C1044    1.0000 0.94190  0.67090  0.80260  Biso   1.000  C
  C1045    1.0000 0.05810  0.30260  0.17090  Biso   1.000  C
  C1046    1.0000 0.94190  0.69740  0.17090  Biso   1.000  C
  C1047    1.0000 0.05810  0.69740  0.82910  Biso   1.000  C
  C1048    1.0000 0.94190  0.30260  0.82910  Biso   1.000  C
  C1049    1.0000 0.30260  0.32910  0.44190  Biso   1.000  C
  C1050    1.0000 0.69740  0.32910  0.55810  Biso   1.000  C
  C1051    1.0000 0.69740  0.67090  0.44190  Biso   1.000  C
  C1052    1.0000 0.30260  0.67090  0.55810  Biso   1.000  C
  C1053    1.0000 0.32910  0.05810  0.19740  Biso   1.000  C
  C1054    1.0000 0.32910  0.94190  0.80260  Biso   1.000  C
  C1055    1.0000 0.67090  0.05810  0.80260  Biso   1.000  C
  C1056    1.0000 0.67090  0.94190  0.19740  Biso   1.000  C
  C1057    1.0000 0.17070  0.44270  0.19590  Biso   1.000  C
  C1058    1.0000 0.82930  0.55730  0.19590  Biso   1.000  C
  C1059    1.0000 0.82930  0.44270  0.80410  Biso   1.000  C
  C1060    1.0000 0.17070  0.55730  0.80410  Biso   1.000  C
  C1061    1.0000 0.19590  0.17070  0.44270  Biso   1.000  C
  C1062    1.0000 0.19590  0.82930  0.55730  Biso   1.000  C
  C1063    1.0000 0.80410  0.82930  0.44270  Biso   1.000  C
  C1064    1.0000 0.80410  0.17070  0.55730  Biso   1.000  C
  C1065    1.0000 0.44270  0.19590  0.17070  Biso   1.000  C
  C1066    1.0000 0.55730  0.19590  0.82930  Biso   1.000  C
  C1067    1.0000 0.44270  0.80410  0.82930  Biso   1.000  C
  C1068    1.0000 0.55730  0.80410  0.17070  Biso   1.000  C
  C1069    1.0000 0.44270  0.17070  0.80410  Biso   1.000  C
  C1070    1.0000 0.55730  0.82930  0.80410  Biso   1.000  C
  C1071    1.0000 0.44270  0.82930  0.19590  Biso   1.000  C
  C1072    1.0000 0.55730  0.17070  0.19590  Biso   1.000  C
  C1073    1.0000 0.17070  0.19590  0.55730  Biso   1.000  C
  C1074    1.0000 0.82930  0.19590  0.44270  Biso   1.000  C
  C1075    1.0000 0.82930  0.80410  0.55730  Biso   1.000  C
  C1076    1.0000 0.17070  0.80410  0.44270  Biso   1.000  C
  C1077    1.0000 0.19590  0.44270  0.82930  Biso   1.000  C
  C1078    1.0000 0.19590  0.55730  0.17070  Biso   1.000  C
  C1079    1.0000 0.80410  0.44270  0.17070  Biso   1.000  C
  C1080    1.0000 0.80410  0.55730  0.82930  Biso   1.000  C
  C1081    1.0000 0.17070  0.94270  0.69590  Biso   1.000  C
  C1082    1.0000 0.82930  0.05730  0.69590  Biso   1.000  C
  C1083    1.0000 0.82930  0.94270  0.30410  Biso   1.000  C
  C1084    1.0000 0.17070  0.05730  0.30410  Biso   1.000  C
  C1085    1.0000 0.19590  0.67070  0.94270  Biso   1.000  C
  C1086    1.0000 0.19590  0.32930  0.05730  Biso   1.000  C
  C1087    1.0000 0.80410  0.32930  0.94270  Biso   1.000  C
  C1088    1.0000 0.80410  0.67070  0.05730  Biso   1.000  C
  C1089    1.0000 0.44270  0.69590  0.67070  Biso   1.000  C
  C1090    1.0000 0.55730  0.69590  0.32930  Biso   1.000  C
  C1091    1.0000 0.44270  0.30410  0.32930  Biso   1.000  C
  C1092    1.0000 0.55730  0.30410  0.67070  Biso   1.000  C
  C1093    1.0000 0.44270  0.67070  0.30410  Biso   1.000  C
  C1094    1.0000 0.55730  0.32930  0.30410  Biso   1.000  C
  C1095    1.0000 0.44270  0.32930  0.69590  Biso   1.000  C
  C1096    1.0000 0.55730  0.67070  0.69590  Biso   1.000  C
  C1097    1.0000 0.17070  0.69590  0.05730  Biso   1.000  C
  C1098    1.0000 0.82930  0.69590  0.94270  Biso   1.000  C
  C1099    1.0000 0.82930  0.30410  0.05730  Biso   1.000  C
  C1100    1.0000 0.17070  0.30410  0.94270  Biso   1.000  C
  C1101    1.0000 0.19590  0.94270  0.32930  Biso   1.000  C
  C1102    1.0000 0.19590  0.05730  0.67070  Biso   1.000  C
  C1103    1.0000 0.80410  0.94270  0.67070  Biso   1.000  C
  C1104    1.0000 0.80410  0.05730  0.32930  Biso   1.000  C
  C1105    1.0000 0.67070  0.44270  0.69590  Biso   1.000  C
  C1106    1.0000 0.32930  0.55730  0.69590  Biso   1.000  C
  C1107    1.0000 0.32930  0.44270  0.30410  Biso   1.000  C
  C1108    1.0000 0.67070  0.55730  0.30410  Biso   1.000  C
  C1109    1.0000 0.69590  0.17070  0.94270  Biso   1.000  C
  C1110    1.0000 0.69590  0.82930  0.05730  Biso   1.000  C
  C1111    1.0000 0.30410  0.82930  0.94270  Biso   1.000  C
  C1112    1.0000 0.30410  0.17070  0.05730  Biso   1.000  C
  C1113    1.0000 0.94270  0.19590  0.67070  Biso   1.000  C
  C1114    1.0000 0.05730  0.19590  0.32930  Biso   1.000  C
  C1115    1.0000 0.94270  0.80410  0.32930  Biso   1.000  C
  C1116    1.0000 0.05730  0.80410  0.67070  Biso   1.000  C
  C1117    1.0000 0.94270  0.17070  0.30410  Biso   1.000  C
  C1118    1.0000 0.05730  0.82930  0.30410  Biso   1.000  C
  C1119    1.0000 0.94270  0.82930  0.69590  Biso   1.000  C
  C1120    1.0000 0.05730  0.17070  0.69590  Biso   1.000  C
  C1121    1.0000 0.67070  0.19590  0.05730  Biso   1.000  C
  C1122    1.0000 0.32930  0.19590  0.94270  Biso   1.000  C
  C1123    1.0000 0.32930  0.80410  0.05730  Biso   1.000  C
  C1124    1.0000 0.67070  0.80410  0.94270  Biso   1.000  C
  C1125    1.0000 0.69590  0.44270  0.32930  Biso   1.000  C
  C1126    1.0000 0.69590  0.55730  0.67070  Biso   1.000  C
  C1127    1.0000 0.30410  0.44270  0.67070  Biso   1.000  C
  C1128    1.0000 0.30410  0.55730  0.32930  Biso   1.000  C
  C1129    1.0000 0.67070  0.94270  0.19590  Biso   1.000  C
  C1130    1.0000 0.32930  0.05730  0.19590  Biso   1.000  C
  C1131    1.0000 0.32930  0.94270  0.80410  Biso   1.000  C
  C1132    1.0000 0.67070  0.05730  0.80410  Biso   1.000  C
  C1133    1.0000 0.69590  0.67070  0.44270  Biso   1.000  C
  C1134    1.0000 0.69590  0.32930  0.55730  Biso   1.000  C
  C1135    1.0000 0.30410  0.32930  0.44270  Biso   1.000  C
  C1136    1.0000 0.30410  0.67070  0.55730  Biso   1.000  C
  C1137    1.0000 0.94270  0.69590  0.17070  Biso   1.000  C
  C1138    1.0000 0.05730  0.69590  0.82930  Biso   1.000  C
  C1139    1.0000 0.94270  0.30410  0.82930  Biso   1.000  C
  C1140    1.0000 0.05730  0.30410  0.17070  Biso   1.000  C
  C1141    1.0000 0.94270  0.67070  0.80410  Biso   1.000  C
  C1142    1.0000 0.05730  0.32930  0.80410  Biso   1.000  C
  C1143    1.0000 0.94270  0.32930  0.19590  Biso   1.000  C
  C1144    1.0000 0.05730  0.67070  0.19590  Biso   1.000  C
  C1145    1.0000 0.67070  0.69590  0.55730  Biso   1.000  C
  C1146    1.0000 0.32930  0.69590  0.44270  Biso   1.000  C
  C1147    1.0000 0.32930  0.30410  0.55730  Biso   1.000  C
  C1148    1.0000 0.67070  0.30410  0.44270  Biso   1.000  C
  C1149    1.0000 0.69590  0.94270  0.82930  Biso   1.000  C
  C1150    1.0000 0.69590  0.05730  0.17070  Biso   1.000  C
  C1151    1.0000 0.30410  0.94270  0.17070  Biso   1.000  C
  C1152    1.0000 0.30410  0.05730  0.82930  Biso   1.000  C
  C1153    1.0000 0.82930  0.55730  0.80410  Biso   1.000  C
  C1154    1.0000 0.17070  0.44270  0.80410  Biso   1.000  C
  C1155    1.0000 0.17070  0.55730  0.19590  Biso   1.000  C
  C1156    1.0000 0.82930  0.44270  0.19590  Biso   1.000  C
  C1157    1.0000 0.80410  0.82930  0.55730  Biso   1.000  C
  C1158    1.0000 0.80410  0.17070  0.44270  Biso   1.000  C
  C1159    1.0000 0.19590  0.17070  0.55730  Biso   1.000  C
  C1160    1.0000 0.19590  0.82930  0.44270  Biso   1.000  C
  C1161    1.0000 0.55730  0.80410  0.82930  Biso   1.000  C
  C1162    1.0000 0.44270  0.80410  0.17070  Biso   1.000  C
  C1163    1.0000 0.55730  0.19590  0.17070  Biso   1.000  C
  C1164    1.0000 0.44270  0.19590  0.82930  Biso   1.000  C
  C1165    1.0000 0.55730  0.82930  0.19590  Biso   1.000  C
  C1166    1.0000 0.44270  0.17070  0.19590  Biso   1.000  C
  C1167    1.0000 0.55730  0.17070  0.80410  Biso   1.000  C
  C1168    1.0000 0.44270  0.82930  0.80410  Biso   1.000  C
  C1169    1.0000 0.82930  0.80410  0.44270  Biso   1.000  C
  C1170    1.0000 0.17070  0.80410  0.55730  Biso   1.000  C
  C1171    1.0000 0.17070  0.19590  0.44270  Biso   1.000  C
  C1172    1.0000 0.82930  0.19590  0.55730  Biso   1.000  C
  C1173    1.0000 0.80410  0.55730  0.17070  Biso   1.000  C
  C1174    1.0000 0.80410  0.44270  0.82930  Biso   1.000  C
  C1175    1.0000 0.19590  0.55730  0.82930  Biso   1.000  C
  C1176    1.0000 0.19590  0.44270  0.17070  Biso   1.000  C
  C1177    1.0000 0.82930  0.05730  0.30410  Biso   1.000  C
  C1178    1.0000 0.17070  0.94270  0.30410  Biso   1.000  C
  C1179    1.0000 0.17070  0.05730  0.69590  Biso   1.000  C
  C1180    1.0000 0.82930  0.94270  0.69590  Biso   1.000  C
  C1181    1.0000 0.80410  0.32930  0.05730  Biso   1.000  C
  C1182    1.0000 0.80410  0.67070  0.94270  Biso   1.000  C
  C1183    1.0000 0.19590  0.67070  0.05730  Biso   1.000  C
  C1184    1.0000 0.19590  0.32930  0.94270  Biso   1.000  C
  C1185    1.0000 0.55730  0.30410  0.32930  Biso   1.000  C
  C1186    1.0000 0.44270  0.30410  0.67070  Biso   1.000  C
  C1187    1.0000 0.55730  0.69590  0.67070  Biso   1.000  C
  C1188    1.0000 0.44270  0.69590  0.32930  Biso   1.000  C
  C1189    1.0000 0.55730  0.32930  0.69590  Biso   1.000  C
  C1190    1.0000 0.44270  0.67070  0.69590  Biso   1.000  C
  C1191    1.0000 0.55730  0.67070  0.30410  Biso   1.000  C
  C1192    1.0000 0.44270  0.32930  0.30410  Biso   1.000  C
  C1193    1.0000 0.82930  0.30410  0.94270  Biso   1.000  C
  C1194    1.0000 0.17070  0.30410  0.05730  Biso   1.000  C
  C1195    1.0000 0.17070  0.69590  0.94270  Biso   1.000  C
  C1196    1.0000 0.82930  0.69590  0.05730  Biso   1.000  C
  C1197    1.0000 0.80410  0.05730  0.67070  Biso   1.000  C
  C1198    1.0000 0.80410  0.94270  0.32930  Biso   1.000  C
  C1199    1.0000 0.19590  0.05730  0.32930  Biso   1.000  C
  C1200    1.0000 0.19590  0.94270  0.67070  Biso   1.000  C
  C1201    1.0000 0.32930  0.55730  0.30410  Biso   1.000  C
  C1202    1.0000 0.67070  0.44270  0.30410  Biso   1.000  C
  C1203    1.0000 0.67070  0.55730  0.69590  Biso   1.000  C
  C1204    1.0000 0.32930  0.44270  0.69590  Biso   1.000  C
  C1205    1.0000 0.30410  0.82930  0.05730  Biso   1.000  C
  C1206    1.0000 0.30410  0.17070  0.94270  Biso   1.000  C
  C1207    1.0000 0.69590  0.17070  0.05730  Biso   1.000  C
  C1208    1.0000 0.69590  0.82930  0.94270  Biso   1.000  C
  C1209    1.0000 0.05730  0.80410  0.32930  Biso   1.000  C
  C1210    1.0000 0.94270  0.80410  0.67070  Biso   1.000  C
  C1211    1.0000 0.05730  0.19590  0.67070  Biso   1.000  C
  C1212    1.0000 0.94270  0.19590  0.32930  Biso   1.000  C
  C1213    1.0000 0.05730  0.82930  0.69590  Biso   1.000  C
  C1214    1.0000 0.94270  0.17070  0.69590  Biso   1.000  C
  C1215    1.0000 0.05730  0.17070  0.30410  Biso   1.000  C
  C1216    1.0000 0.94270  0.82930  0.30410  Biso   1.000  C
  C1217    1.0000 0.32930  0.80410  0.94270  Biso   1.000  C
  C1218    1.0000 0.67070  0.80410  0.05730  Biso   1.000  C
  C1219    1.0000 0.67070  0.19590  0.94270  Biso   1.000  C
  C1220    1.0000 0.32930  0.19590  0.05730  Biso   1.000  C
  C1221    1.0000 0.30410  0.55730  0.67070  Biso   1.000  C
  C1222    1.0000 0.30410  0.44270  0.32930  Biso   1.000  C
  C1223    1.0000 0.69590  0.55730  0.32930  Biso   1.000  C
  C1224    1.0000 0.69590  0.44270  0.67070  Biso   1.000  C
  C1225    1.0000 0.32930  0.05730  0.80410  Biso   1.000  C
  C1226    1.0000 0.67070  0.94270  0.80410  Biso   1.000  C
  C1227    1.0000 0.67070  0.05730  0.19590  Biso   1.000  C
  C1228    1.0000 0.32930  0.94270  0.19590  Biso   1.000  C
  C1229    1.0000 0.30410  0.32930  0.55730  Biso   1.000  C
  C1230    1.0000 0.30410  0.67070  0.44270  Biso   1.000  C
  C1231    1.0000 0.69590  0.67070  0.55730  Biso   1.000  C
  C1232    1.0000 0.69590  0.32930  0.44270  Biso   1.000  C
  C1233    1.0000 0.05730  0.30410  0.82930  Biso   1.000  C
  C1234    1.0000 0.94270  0.30410  0.17070  Biso   1.000  C
  C1235    1.0000 0.05730  0.69590  0.17070  Biso   1.000  C
  C1236    1.0000 0.94270  0.69590  0.82930  Biso   1.000  C
  C1237    1.0000 0.05730  0.32930  0.19590  Biso   1.000  C
  C1238    1.0000 0.94270  0.67070  0.19590  Biso   1.000  C
  C1239    1.0000 0.05730  0.67070  0.80410  Biso   1.000  C
  C1240    1.0000 0.94270  0.32930  0.80410  Biso   1.000  C
  C1241    1.0000 0.32930  0.30410  0.44270  Biso   1.000  C
  C1242    1.0000 0.67070  0.30410  0.55730  Biso   1.000  C
  C1243    1.0000 0.67070  0.69590  0.44270  Biso   1.000  C
  C1244    1.0000 0.32930  0.69590  0.55730  Biso   1.000  C
  C1245    1.0000 0.30410  0.05730  0.17070  Biso   1.000  C
  C1246    1.0000 0.30410  0.94270  0.82930  Biso   1.000  C
  C1247    1.0000 0.69590  0.05730  0.82930  Biso   1.000  C
  C1248    1.0000 0.69590  0.94270  0.17070  Biso   1.000  C
  C1249    1.0000 0.20180  0.42510  0.20300  Biso   1.000  C
  C1250    1.0000 0.79820  0.57490  0.20300  Biso   1.000  C
  C1251    1.0000 0.79820  0.42510  0.79700  Biso   1.000  C
  C1252    1.0000 0.20180  0.57490  0.79700  Biso   1.000  C
  C1253    1.0000 0.20300  0.20180  0.42510  Biso   1.000  C
  C1254    1.0000 0.20300  0.79820  0.57490  Biso   1.000  C
  C1255    1.0000 0.79700  0.79820  0.42510  Biso   1.000  C
  C1256    1.0000 0.79700  0.20180  0.57490  Biso   1.000  C
  C1257    1.0000 0.42510  0.20300  0.20180  Biso   1.000  C
  C1258    1.0000 0.57490  0.20300  0.79820  Biso   1.000  C
  C1259    1.0000 0.42510  0.79700  0.79820  Biso   1.000  C
  C1260    1.0000 0.57490  0.79700  0.20180  Biso   1.000  C
  C1261    1.0000 0.42510  0.20180  0.79700  Biso   1.000  C
  C1262    1.0000 0.57490  0.79820  0.79700  Biso   1.000  C
  C1263    1.0000 0.42510  0.79820  0.20300  Biso   1.000  C
  C1264    1.0000 0.57490  0.20180  0.20300  Biso   1.000  C
  C1265    1.0000 0.20180  0.20300  0.57490  Biso   1.000  C
  C1266    1.0000 0.79820  0.20300  0.42510  Biso   1.000  C
  C1267    1.0000 0.79820  0.79700  0.57490  Biso   1.000  C
  C1268    1.0000 0.20180  0.79700  0.42510  Biso   1.000  C
  C1269    1.0000 0.20300  0.42510  0.79820  Biso   1.000  C
  C1270    1.0000 0.20300  0.57490  0.20180  Biso   1.000  C
  C1271    1.0000 0.79700  0.42510  0.20180  Biso   1.000  C
  C1272    1.0000 0.79700  0.57490  0.79820  Biso   1.000  C
  C1273    1.0000 0.20180  0.92510  0.70300  Biso   1.000  C
  C1274    1.0000 0.79820  0.07490  0.70300  Biso   1.000  C
  C1275    1.0000 0.79820  0.92510  0.29700  Biso   1.000  C
  C1276    1.0000 0.20180  0.07490  0.29700  Biso   1.000  C
  C1277    1.0000 0.20300  0.70180  0.92510  Biso   1.000  C
  C1278    1.0000 0.20300  0.29820  0.07490  Biso   1.000  C
  C1279    1.0000 0.79700  0.29820  0.92510  Biso   1.000  C
  C1280    1.0000 0.79700  0.70180  0.07490  Biso   1.000  C
  C1281    1.0000 0.42510  0.70300  0.70180  Biso   1.000  C
  C1282    1.0000 0.57490  0.70300  0.29820  Biso   1.000  C
  C1283    1.0000 0.42510  0.29700  0.29820  Biso   1.000  C
  C1284    1.0000 0.57490  0.29700  0.70180  Biso   1.000  C
  C1285    1.0000 0.42510  0.70180  0.29700  Biso   1.000  C
  C1286    1.0000 0.57490  0.29820  0.29700  Biso   1.000  C
  C1287    1.0000 0.42510  0.29820  0.70300  Biso   1.000  C
  C1288    1.0000 0.57490  0.70180  0.70300  Biso   1.000  C
  C1289    1.0000 0.20180  0.70300  0.07490  Biso   1.000  C
  C1290    1.0000 0.79820  0.70300  0.92510  Biso   1.000  C
  C1291    1.0000 0.79820  0.29700  0.07490  Biso   1.000  C
  C1292    1.0000 0.20180  0.29700  0.92510  Biso   1.000  C
  C1293    1.0000 0.20300  0.92510  0.29820  Biso   1.000  C
  C1294    1.0000 0.20300  0.07490  0.70180  Biso   1.000  C
  C1295    1.0000 0.79700  0.92510  0.70180  Biso   1.000  C
  C1296    1.0000 0.79700  0.07490  0.29820  Biso   1.000  C
  C1297    1.0000 0.70180  0.42510  0.70300  Biso   1.000  C
  C1298    1.0000 0.29820  0.57490  0.70300  Biso   1.000  C
  C1299    1.0000 0.29820  0.42510  0.29700  Biso   1.000  C
  C1300    1.0000 0.70180  0.57490  0.29700  Biso   1.000  C
  C1301    1.0000 0.70300  0.20180  0.92510  Biso   1.000  C
  C1302    1.0000 0.70300  0.79820  0.07490  Biso   1.000  C
  C1303    1.0000 0.29700  0.79820  0.92510  Biso   1.000  C
  C1304    1.0000 0.29700  0.20180  0.07490  Biso   1.000  C
  C1305    1.0000 0.92510  0.20300  0.70180  Biso   1.000  C
  C1306    1.0000 0.07490  0.20300  0.29820  Biso   1.000  C
  C1307    1.0000 0.92510  0.79700  0.29820  Biso   1.000  C
  C1308    1.0000 0.07490  0.79700  0.70180  Biso   1.000  C
  C1309    1.0000 0.92510  0.20180  0.29700  Biso   1.000  C
  C1310    1.0000 0.07490  0.79820  0.29700  Biso   1.000  C
  C1311    1.0000 0.92510  0.79820  0.70300  Biso   1.000  C
  C1312    1.0000 0.07490  0.20180  0.70300  Biso   1.000  C
  C1313    1.0000 0.70180  0.20300  0.07490  Biso   1.000  C
  C1314    1.0000 0.29820  0.20300  0.92510  Biso   1.000  C
  C1315    1.0000 0.29820  0.79700  0.07490  Biso   1.000  C
  C1316    1.0000 0.70180  0.79700  0.92510  Biso   1.000  C
  C1317    1.0000 0.70300  0.42510  0.29820  Biso   1.000  C
  C1318    1.0000 0.70300  0.57490  0.70180  Biso   1.000  C
  C1319    1.0000 0.29700  0.42510  0.70180  Biso   1.000  C
  C1320    1.0000 0.29700  0.57490  0.29820  Biso   1.000  C
  C1321    1.0000 0.70180  0.92510  0.20300  Biso   1.000  C
  C1322    1.0000 0.29820  0.07490  0.20300  Biso   1.000  C
  C1323    1.0000 0.29820  0.92510  0.79700  Biso   1.000  C
  C1324    1.0000 0.70180  0.07490  0.79700  Biso   1.000  C
  C1325    1.0000 0.70300  0.70180  0.42510  Biso   1.000  C
  C1326    1.0000 0.70300  0.29820  0.57490  Biso   1.000  C
  C1327    1.0000 0.29700  0.29820  0.42510  Biso   1.000  C
  C1328    1.0000 0.29700  0.70180  0.57490  Biso   1.000  C
  C1329    1.0000 0.92510  0.70300  0.20180  Biso   1.000  C
  C1330    1.0000 0.07490  0.70300  0.79820  Biso   1.000  C
  C1331    1.0000 0.92510  0.29700  0.79820  Biso   1.000  C
  C1332    1.0000 0.07490  0.29700  0.20180  Biso   1.000  C
  C1333    1.0000 0.92510  0.70180  0.79700  Biso   1.000  C
  C1334    1.0000 0.07490  0.29820  0.79700  Biso   1.000  C
  C1335    1.0000 0.92510  0.29820  0.20300  Biso   1.000  C
  C1336    1.0000 0.07490  0.70180  0.20300  Biso   1.000  C
  C1337    1.0000 0.70180  0.70300  0.57490  Biso   1.000  C
  C1338    1.0000 0.29820  0.70300  0.42510  Biso   1.000  C
  C1339    1.0000 0.29820  0.29700  0.57490  Biso   1.000  C
  C1340    1.0000 0.70180  0.29700  0.42510  Biso   1.000  C
  C1341    1.0000 0.70300  0.92510  0.79820  Biso   1.000  C
  C1342    1.0000 0.70300  0.07490  0.20180  Biso   1.000  C
  C1343    1.0000 0.29700  0.92510  0.20180  Biso   1.000  C
  C1344    1.0000 0.29700  0.07490  0.79820  Biso   1.000  C
  C1345    1.0000 0.79820  0.57490  0.79700  Biso   1.000  C
  C1346    1.0000 0.20180  0.42510  0.79700  Biso   1.000  C
  C1347    1.0000 0.20180  0.57490  0.20300  Biso   1.000  C
  C1348    1.0000 0.79820  0.42510  0.20300  Biso   1.000  C
  C1349    1.0000 0.79700  0.79820  0.57490  Biso   1.000  C
  C1350    1.0000 0.79700  0.20180  0.42510  Biso   1.000  C
  C1351    1.0000 0.20300  0.20180  0.57490  Biso   1.000  C
  C1352    1.0000 0.20300  0.79820  0.42510  Biso   1.000  C
  C1353    1.0000 0.57490  0.79700  0.79820  Biso   1.000  C
  C1354    1.0000 0.42510  0.79700  0.20180  Biso   1.000  C
  C1355    1.0000 0.57490  0.20300  0.20180  Biso   1.000  C
  C1356    1.0000 0.42510  0.20300  0.79820  Biso   1.000  C
  C1357    1.0000 0.57490  0.79820  0.20300  Biso   1.000  C
  C1358    1.0000 0.42510  0.20180  0.20300  Biso   1.000  C
  C1359    1.0000 0.57490  0.20180  0.79700  Biso   1.000  C
  C1360    1.0000 0.42510  0.79820  0.79700  Biso   1.000  C
  C1361    1.0000 0.79820  0.79700  0.42510  Biso   1.000  C
  C1362    1.0000 0.20180  0.79700  0.57490  Biso   1.000  C
  C1363    1.0000 0.20180  0.20300  0.42510  Biso   1.000  C
  C1364    1.0000 0.79820  0.20300  0.57490  Biso   1.000  C
  C1365    1.0000 0.79700  0.57490  0.20180  Biso   1.000  C
  C1366    1.0000 0.79700  0.42510  0.79820  Biso   1.000  C
  C1367    1.0000 0.20300  0.57490  0.79820  Biso   1.000  C
  C1368    1.0000 0.20300  0.42510  0.20180  Biso   1.000  C
  C1369    1.0000 0.79820  0.07490  0.29700  Biso   1.000  C
  C1370    1.0000 0.20180  0.92510  0.29700  Biso   1.000  C
  C1371    1.0000 0.20180  0.07490  0.70300  Biso   1.000  C
  C1372    1.0000 0.79820  0.92510  0.70300  Biso   1.000  C
  C1373    1.0000 0.79700  0.29820  0.07490  Biso   1.000  C
  C1374    1.0000 0.79700  0.70180  0.92510  Biso   1.000  C
  C1375    1.0000 0.20300  0.70180  0.07490  Biso   1.000  C
  C1376    1.0000 0.20300  0.29820  0.92510  Biso   1.000  C
  C1377    1.0000 0.57490  0.29700  0.29820  Biso   1.000  C
  C1378    1.0000 0.42510  0.29700  0.70180  Biso   1.000  C
  C1379    1.0000 0.57490  0.70300  0.70180  Biso   1.000  C
  C1380    1.0000 0.42510  0.70300  0.29820  Biso   1.000  C
  C1381    1.0000 0.57490  0.29820  0.70300  Biso   1.000  C
  C1382    1.0000 0.42510  0.70180  0.70300  Biso   1.000  C
  C1383    1.0000 0.57490  0.70180  0.29700  Biso   1.000  C
  C1384    1.0000 0.42510  0.29820  0.29700  Biso   1.000  C
  C1385    1.0000 0.79820  0.29700  0.92510  Biso   1.000  C
  C1386    1.0000 0.20180  0.29700  0.07490  Biso   1.000  C
  C1387    1.0000 0.20180  0.70300  0.92510  Biso   1.000  C
  C1388    1.0000 0.79820  0.70300  0.07490  Biso   1.000  C
  C1389    1.0000 0.79700  0.07490  0.70180  Biso   1.000  C
  C1390    1.0000 0.79700  0.92510  0.29820  Biso   1.000  C
  C1391    1.0000 0.20300  0.07490  0.29820  Biso   1.000  C
  C1392    1.0000 0.20300  0.92510  0.70180  Biso   1.000  C
  C1393    1.0000 0.29820  0.57490  0.29700  Biso   1.000  C
  C1394    1.0000 0.70180  0.42510  0.29700  Biso   1.000  C
  C1395    1.0000 0.70180  0.57490  0.70300  Biso   1.000  C
  C1396    1.0000 0.29820  0.42510  0.70300  Biso   1.000  C
  C1397    1.0000 0.29700  0.79820  0.07490  Biso   1.000  C
  C1398    1.0000 0.29700  0.20180  0.92510  Biso   1.000  C
  C1399    1.0000 0.70300  0.20180  0.07490  Biso   1.000  C
  C1400    1.0000 0.70300  0.79820  0.92510  Biso   1.000  C
  C1401    1.0000 0.07490  0.79700  0.29820  Biso   1.000  C
  C1402    1.0000 0.92510  0.79700  0.70180  Biso   1.000  C
  C1403    1.0000 0.07490  0.20300  0.70180  Biso   1.000  C
  C1404    1.0000 0.92510  0.20300  0.29820  Biso   1.000  C
  C1405    1.0000 0.07490  0.79820  0.70300  Biso   1.000  C
  C1406    1.0000 0.92510  0.20180  0.70300  Biso   1.000  C
  C1407    1.0000 0.07490  0.20180  0.29700  Biso   1.000  C
  C1408    1.0000 0.92510  0.79820  0.29700  Biso   1.000  C
  C1409    1.0000 0.29820  0.79700  0.92510  Biso   1.000  C
  C1410    1.0000 0.70180  0.79700  0.07490  Biso   1.000  C
  C1411    1.0000 0.70180  0.20300  0.92510  Biso   1.000  C
  C1412    1.0000 0.29820  0.20300  0.07490  Biso   1.000  C
  C1413    1.0000 0.29700  0.57490  0.70180  Biso   1.000  C
  C1414    1.0000 0.29700  0.42510  0.29820  Biso   1.000  C
  C1415    1.0000 0.70300  0.57490  0.29820  Biso   1.000  C
  C1416    1.0000 0.70300  0.42510  0.70180  Biso   1.000  C
  C1417    1.0000 0.29820  0.07490  0.79700  Biso   1.000  C
  C1418    1.0000 0.70180  0.92510  0.79700  Biso   1.000  C
  C1419    1.0000 0.70180  0.07490  0.20300  Biso   1.000  C
  C1420    1.0000 0.29820  0.92510  0.20300  Biso   1.000  C
  C1421    1.0000 0.29700  0.29820  0.57490  Biso   1.000  C
  C1422    1.0000 0.29700  0.70180  0.42510  Biso   1.000  C
  C1423    1.0000 0.70300  0.70180  0.57490  Biso   1.000  C
  C1424    1.0000 0.70300  0.29820  0.42510  Biso   1.000  C
  C1425    1.0000 0.07490  0.29700  0.79820  Biso   1.000  C
  C1426    1.0000 0.92510  0.29700  0.20180  Biso   1.000  C
  C1427    1.0000 0.07490  0.70300  0.20180  Biso   1.000  C
  C1428    1.0000 0.92510  0.70300  0.79820  Biso   1.000  C
  C1429    1.0000 0.07490  0.29820  0.20300  Biso   1.000  C
  C1430    1.0000 0.92510  0.70180  0.20300  Biso   1.000  C
  C1431    1.0000 0.07490  0.70180  0.79700  Biso   1.000  C
  C1432    1.0000 0.92510  0.29820  0.79700  Biso   1.000  C
  C1433    1.0000 0.29820  0.29700  0.42510  Biso   1.000  C
  C1434    1.0000 0.70180  0.29700  0.57490  Biso   1.000  C
  C1435    1.0000 0.70180  0.70300  0.42510  Biso   1.000  C
  C1436    1.0000 0.29820  0.70300  0.57490  Biso   1.000  C
  C1437    1.0000 0.29700  0.07490  0.20180  Biso   1.000  C
  C1438    1.0000 0.29700  0.92510  0.79820  Biso   1.000  C
  C1439    1.0000 0.70300  0.07490  0.79820  Biso   1.000  C
  C1440    1.0000 0.70300  0.92510  0.20180  Biso   1.000  C
  C1441    1.0000 0.20650  0.47300  0.20650  Biso   1.000  C
  C1442    1.0000 0.79350  0.52700  0.20650  Biso   1.000  C
  C1443    1.0000 0.79350  0.47300  0.79350  Biso   1.000  C
  C1444    1.0000 0.20650  0.52700  0.79350  Biso   1.000  C
  C1445    1.0000 0.20650  0.20650  0.47300  Biso   1.000  C
  C1446    1.0000 0.20650  0.79350  0.52700  Biso   1.000  C
  C1447    1.0000 0.79350  0.79350  0.47300  Biso   1.000  C
  C1448    1.0000 0.79350  0.20650  0.52700  Biso   1.000  C
  C1449    1.0000 0.47300  0.20650  0.20650  Biso   1.000  C
  C1450    1.0000 0.52700  0.20650  0.79350  Biso   1.000  C
  C1451    1.0000 0.47300  0.79350  0.79350  Biso   1.000  C
  C1452    1.0000 0.52700  0.79350  0.20650  Biso   1.000  C
  C1453    1.0000 0.47300  0.20650  0.79350  Biso   1.000  C
  C1454    1.0000 0.52700  0.79350  0.79350  Biso   1.000  C
  C1455    1.0000 0.47300  0.79350  0.20650  Biso   1.000  C
  C1456    1.0000 0.52700  0.20650  0.20650  Biso   1.000  C
  C1457    1.0000 0.20650  0.20650  0.52700  Biso   1.000  C
  C1458    1.0000 0.79350  0.20650  0.47300  Biso   1.000  C
  C1459    1.0000 0.79350  0.79350  0.52700  Biso   1.000  C
  C1460    1.0000 0.20650  0.79350  0.47300  Biso   1.000  C
  C1461    1.0000 0.20650  0.47300  0.79350  Biso   1.000  C
  C1462    1.0000 0.20650  0.52700  0.20650  Biso   1.000  C
  C1463    1.0000 0.79350  0.47300  0.20650  Biso   1.000  C
  C1464    1.0000 0.79350  0.52700  0.79350  Biso   1.000  C
  C1465    1.0000 0.20650  0.97300  0.70650  Biso   1.000  C
  C1466    1.0000 0.79350  0.02700  0.70650  Biso   1.000  C
  C1467    1.0000 0.79350  0.97300  0.29350  Biso   1.000  C
  C1468    1.0000 0.20650  0.02700  0.29350  Biso   1.000  C
  C1469    1.0000 0.20650  0.70650  0.97300  Biso   1.000  C
  C1470    1.0000 0.20650  0.29350  0.02700  Biso   1.000  C
  C1471    1.0000 0.79350  0.29350  0.97300  Biso   1.000  C
  C1472    1.0000 0.79350  0.70650  0.02700  Biso   1.000  C
  C1473    1.0000 0.47300  0.70650  0.70650  Biso   1.000  C
  C1474    1.0000 0.52700  0.70650  0.29350  Biso   1.000  C
  C1475    1.0000 0.47300  0.29350  0.29350  Biso   1.000  C
  C1476    1.0000 0.52700  0.29350  0.70650  Biso   1.000  C
  C1477    1.0000 0.47300  0.70650  0.29350  Biso   1.000  C
  C1478    1.0000 0.52700  0.29350  0.29350  Biso   1.000  C
  C1479    1.0000 0.47300  0.29350  0.70650  Biso   1.000  C
  C1480    1.0000 0.52700  0.70650  0.70650  Biso   1.000  C
  C1481    1.0000 0.20650  0.70650  0.02700  Biso   1.000  C
  C1482    1.0000 0.79350  0.70650  0.97300  Biso   1.000  C
  C1483    1.0000 0.79350  0.29350  0.02700  Biso   1.000  C
  C1484    1.0000 0.20650  0.29350  0.97300  Biso   1.000  C
  C1485    1.0000 0.20650  0.97300  0.29350  Biso   1.000  C
  C1486    1.0000 0.20650  0.02700  0.70650  Biso   1.000  C
  C1487    1.0000 0.79350  0.97300  0.70650  Biso   1.000  C
  C1488    1.0000 0.79350  0.02700  0.29350  Biso   1.000  C
  C1489    1.0000 0.70650  0.47300  0.70650  Biso   1.000  C
  C1490    1.0000 0.29350  0.52700  0.70650  Biso   1.000  C
  C1491    1.0000 0.29350  0.47300  0.29350  Biso   1.000  C
  C1492    1.0000 0.70650  0.52700  0.29350  Biso   1.000  C
  C1493    1.0000 0.70650  0.20650  0.97300  Biso   1.000  C
  C1494    1.0000 0.70650  0.79350  0.02700  Biso   1.000  C
  C1495    1.0000 0.29350  0.79350  0.97300  Biso   1.000  C
  C1496    1.0000 0.29350  0.20650  0.02700  Biso   1.000  C
  C1497    1.0000 0.97300  0.20650  0.70650  Biso   1.000  C
  C1498    1.0000 0.02700  0.20650  0.29350  Biso   1.000  C
  C1499    1.0000 0.97300  0.79350  0.29350  Biso   1.000  C
  C1500    1.0000 0.02700  0.79350  0.70650  Biso   1.000  C
  C1501    1.0000 0.97300  0.20650  0.29350  Biso   1.000  C
  C1502    1.0000 0.02700  0.79350  0.29350  Biso   1.000  C
  C1503    1.0000 0.97300  0.79350  0.70650  Biso   1.000  C
  C1504    1.0000 0.02700  0.20650  0.70650  Biso   1.000  C
  C1505    1.0000 0.70650  0.20650  0.02700  Biso   1.000  C
  C1506    1.0000 0.29350  0.20650  0.97300  Biso   1.000  C
  C1507    1.0000 0.29350  0.79350  0.02700  Biso   1.000  C
  C1508    1.0000 0.70650  0.79350  0.97300  Biso   1.000  C
  C1509    1.0000 0.70650  0.47300  0.29350  Biso   1.000  C
  C1510    1.0000 0.70650  0.52700  0.70650  Biso   1.000  C
  C1511    1.0000 0.29350  0.47300  0.70650  Biso   1.000  C
  C1512    1.0000 0.29350  0.52700  0.29350  Biso   1.000  C
  C1513    1.0000 0.70650  0.97300  0.20650  Biso   1.000  C
  C1514    1.0000 0.29350  0.02700  0.20650  Biso   1.000  C
  C1515    1.0000 0.29350  0.97300  0.79350  Biso   1.000  C
  C1516    1.0000 0.70650  0.02700  0.79350  Biso   1.000  C
  C1517    1.0000 0.70650  0.70650  0.47300  Biso   1.000  C
  C1518    1.0000 0.70650  0.29350  0.52700  Biso   1.000  C
  C1519    1.0000 0.29350  0.29350  0.47300  Biso   1.000  C
  C1520    1.0000 0.29350  0.70650  0.52700  Biso   1.000  C
  C1521    1.0000 0.97300  0.70650  0.20650  Biso   1.000  C
  C1522    1.0000 0.02700  0.70650  0.79350  Biso   1.000  C
  C1523    1.0000 0.97300  0.29350  0.79350  Biso   1.000  C
  C1524    1.0000 0.02700  0.29350  0.20650  Biso   1.000  C
  C1525    1.0000 0.97300  0.70650  0.79350  Biso   1.000  C
  C1526    1.0000 0.02700  0.29350  0.79350  Biso   1.000  C
  C1527    1.0000 0.97300  0.29350  0.20650  Biso   1.000  C
  C1528    1.0000 0.02700  0.70650  0.20650  Biso   1.000  C
  C1529    1.0000 0.70650  0.70650  0.52700  Biso   1.000  C
  C1530    1.0000 0.29350  0.70650  0.47300  Biso   1.000  C
  C1531    1.0000 0.29350  0.29350  0.52700  Biso   1.000  C
  C1532    1.0000 0.70650  0.29350  0.47300  Biso   1.000  C
  C1533    1.0000 0.70650  0.97300  0.79350  Biso   1.000  C
  C1534    1.0000 0.70650  0.02700  0.20650  Biso   1.000  C
  C1535    1.0000 0.29350  0.97300  0.20650  Biso   1.000  C
  C1536    1.0000 0.29350  0.02700  0.79350  Biso   1.000  C
  C1537    1.0000 0.25000  0.25000  0.25000  Biso   1.000  C
  C1538    1.0000 0.75000  0.75000  0.25000  Biso   1.000  C
  C1539    1.0000 0.75000  0.25000  0.75000  Biso   1.000  C
  C1540    1.0000 0.25000  0.75000  0.75000  Biso   1.000  C
  C1541    1.0000 0.25000  0.25000  0.75000  Biso   1.000  C
  C1542    1.0000 0.75000  0.75000  0.75000  Biso   1.000  C
  C1543    1.0000 0.25000  0.75000  0.25000  Biso   1.000  C
  C1544    1.0000 0.75000  0.25000  0.25000  Biso   1.000  C
  C1545    1.0000 0.26910  0.31920  0.23090  Biso   1.000  C
  C1546    1.0000 0.73090  0.68080  0.23090  Biso   1.000  C
  C1547    1.0000 0.73090  0.31920  0.76910  Biso   1.000  C
  C1548    1.0000 0.26910  0.68080  0.76910  Biso   1.000  C
  C1549    1.0000 0.23090  0.26910  0.31920  Biso   1.000  C
  C1550    1.0000 0.23090  0.73090  0.68080  Biso   1.000  C
  C1551    1.0000 0.76910  0.73090  0.31920  Biso   1.000  C
  C1552    1.0000 0.76910  0.26910  0.68080  Biso   1.000  C
  C1553    1.0000 0.31920  0.23090  0.26910  Biso   1.000  C
  C1554    1.0000 0.68080  0.23090  0.73090  Biso   1.000  C
  C1555    1.0000 0.31920  0.76910  0.73090  Biso   1.000  C
  C1556    1.0000 0.68080  0.76910  0.26910  Biso   1.000  C
  C1557    1.0000 0.31920  0.26910  0.76910  Biso   1.000  C
  C1558    1.0000 0.68080  0.73090  0.76910  Biso   1.000  C
  C1559    1.0000 0.31920  0.73090  0.23090  Biso   1.000  C
  C1560    1.0000 0.68080  0.26910  0.23090  Biso   1.000  C
  C1561    1.0000 0.26910  0.23090  0.68080  Biso   1.000  C
  C1562    1.0000 0.73090  0.23090  0.31920  Biso   1.000  C
  C1563    1.0000 0.73090  0.76910  0.68080  Biso   1.000  C
  C1564    1.0000 0.26910  0.76910  0.31920  Biso   1.000  C
  C1565    1.0000 0.23090  0.31920  0.73090  Biso   1.000  C
  C1566    1.0000 0.23090  0.68080  0.26910  Biso   1.000  C
  C1567    1.0000 0.76910  0.31920  0.26910  Biso   1.000  C
  C1568    1.0000 0.76910  0.68080  0.73090  Biso   1.000  C
  C1569    1.0000 0.26910  0.81920  0.73090  Biso   1.000  C
  C1570    1.0000 0.73090  0.18080  0.73090  Biso   1.000  C
  C1571    1.0000 0.73090  0.81920  0.26910  Biso   1.000  C
  C1572    1.0000 0.26910  0.18080  0.26910  Biso   1.000  C
  C1573    1.0000 0.23090  0.76910  0.81920  Biso   1.000  C
  C1574    1.0000 0.23090  0.23090  0.18080  Biso   1.000  C
  C1575    1.0000 0.76910  0.23090  0.81920  Biso   1.000  C
  C1576    1.0000 0.76910  0.76910  0.18080  Biso   1.000  C
  C1577    1.0000 0.31920  0.73090  0.76910  Biso   1.000  C
  C1578    1.0000 0.68080  0.73090  0.23090  Biso   1.000  C
  C1579    1.0000 0.31920  0.26910  0.23090  Biso   1.000  C
  C1580    1.0000 0.68080  0.26910  0.76910  Biso   1.000  C
  C1581    1.0000 0.31920  0.76910  0.26910  Biso   1.000  C
  C1582    1.0000 0.68080  0.23090  0.26910  Biso   1.000  C
  C1583    1.0000 0.31920  0.23090  0.73090  Biso   1.000  C
  C1584    1.0000 0.68080  0.76910  0.73090  Biso   1.000  C
  C1585    1.0000 0.26910  0.73090  0.18080  Biso   1.000  C
  C1586    1.0000 0.73090  0.73090  0.81920  Biso   1.000  C
  C1587    1.0000 0.73090  0.26910  0.18080  Biso   1.000  C
  C1588    1.0000 0.26910  0.26910  0.81920  Biso   1.000  C
  C1589    1.0000 0.23090  0.81920  0.23090  Biso   1.000  C
  C1590    1.0000 0.23090  0.18080  0.76910  Biso   1.000  C
  C1591    1.0000 0.76910  0.81920  0.76910  Biso   1.000  C
  C1592    1.0000 0.76910  0.18080  0.23090  Biso   1.000  C
  C1593    1.0000 0.76910  0.31920  0.73090  Biso   1.000  C
  C1594    1.0000 0.23090  0.68080  0.73090  Biso   1.000  C
  C1595    1.0000 0.23090  0.31920  0.26910  Biso   1.000  C
  C1596    1.0000 0.76910  0.68080  0.26910  Biso   1.000  C
  C1597    1.0000 0.73090  0.26910  0.81920  Biso   1.000  C
  C1598    1.0000 0.73090  0.73090  0.18080  Biso   1.000  C
  C1599    1.0000 0.26910  0.73090  0.81920  Biso   1.000  C
  C1600    1.0000 0.26910  0.26910  0.18080  Biso   1.000  C
  C1601    1.0000 0.81920  0.23090  0.76910  Biso   1.000  C
  C1602    1.0000 0.18080  0.23090  0.23090  Biso   1.000  C
  C1603    1.0000 0.81920  0.76910  0.23090  Biso   1.000  C
  C1604    1.0000 0.18080  0.76910  0.76910  Biso   1.000  C
  C1605    1.0000 0.81920  0.26910  0.26910  Biso   1.000  C
  C1606    1.0000 0.18080  0.73090  0.26910  Biso   1.000  C
  C1607    1.0000 0.81920  0.73090  0.73090  Biso   1.000  C
  C1608    1.0000 0.18080  0.26910  0.73090  Biso   1.000  C
  C1609    1.0000 0.76910  0.23090  0.18080  Biso   1.000  C
  C1610    1.0000 0.23090  0.23090  0.81920  Biso   1.000  C
  C1611    1.0000 0.23090  0.76910  0.18080  Biso   1.000  C
  C1612    1.0000 0.76910  0.76910  0.81920  Biso   1.000  C
  C1613    1.0000 0.73090  0.31920  0.23090  Biso   1.000  C
  C1614    1.0000 0.73090  0.68080  0.76910  Biso   1.000  C
  C1615    1.0000 0.26910  0.31920  0.76910  Biso   1.000  C
  C1616    1.0000 0.26910  0.68080  0.23090  Biso   1.000  C
  C1617    1.0000 0.76910  0.81920  0.23090  Biso   1.000  C
  C1618    1.0000 0.23090  0.18080  0.23090  Biso   1.000  C
  C1619    1.0000 0.23090  0.81920  0.76910  Biso   1.000  C
  C1620    1.0000 0.76910  0.18080  0.76910  Biso   1.000  C
  C1621    1.0000 0.73090  0.76910  0.31920  Biso   1.000  C
  C1622    1.0000 0.73090  0.23090  0.68080  Biso   1.000  C
  C1623    1.0000 0.26910  0.23090  0.31920  Biso   1.000  C
  C1624    1.0000 0.26910  0.76910  0.68080  Biso   1.000  C
  C1625    1.0000 0.81920  0.73090  0.26910  Biso   1.000  C
  C1626    1.0000 0.18080  0.73090  0.73090  Biso   1.000  C
  C1627    1.0000 0.81920  0.26910  0.73090  Biso   1.000  C
  C1628    1.0000 0.18080  0.26910  0.26910  Biso   1.000  C
  C1629    1.0000 0.81920  0.76910  0.76910  Biso   1.000  C
  C1630    1.0000 0.18080  0.23090  0.76910  Biso   1.000  C
  C1631    1.0000 0.81920  0.23090  0.23090  Biso   1.000  C
  C1632    1.0000 0.18080  0.76910  0.23090  Biso   1.000  C
  C1633    1.0000 0.76910  0.73090  0.68080  Biso   1.000  C
  C1634    1.0000 0.23090  0.73090  0.31920  Biso   1.000  C
  C1635    1.0000 0.23090  0.26910  0.68080  Biso   1.000  C
  C1636    1.0000 0.76910  0.26910  0.31920  Biso   1.000  C
  C1637    1.0000 0.73090  0.81920  0.73090  Biso   1.000  C
  C1638    1.0000 0.73090  0.18080  0.26910  Biso   1.000  C
  C1639    1.0000 0.26910  0.81920  0.26910  Biso   1.000  C
  C1640    1.0000 0.26910  0.18080  0.73090  Biso   1.000  C
  C1641    1.0000 0.27617  0.27617  0.22383  Biso   1.000  C
  C1642    1.0000 0.72383  0.72383  0.22383  Biso   1.000  C
  C1643    1.0000 0.72383  0.27617  0.77617  Biso   1.000  C
  C1644    1.0000 0.27617  0.72383  0.77617  Biso   1.000  C
  C1645    1.0000 0.22383  0.27617  0.27617  Biso   1.000  C
  C1646    1.0000 0.22383  0.72383  0.72383  Biso   1.000  C
  C1647    1.0000 0.77617  0.72383  0.27617  Biso   1.000  C
  C1648    1.0000 0.77617  0.27617  0.72383  Biso   1.000  C
  C1649    1.0000 0.27617  0.22383  0.27617  Biso   1.000  C
  C1650    1.0000 0.72383  0.22383  0.72383  Biso   1.000  C
  C1651    1.0000 0.27617  0.77617  0.72383  Biso   1.000  C
  C1652    1.0000 0.72383  0.77617  0.27617  Biso   1.000  C
  C1653    1.0000 0.27617  0.27617  0.77617  Biso   1.000  C
  C1654    1.0000 0.72383  0.72383  0.77617  Biso   1.000  C
  C1655    1.0000 0.27617  0.72383  0.22383  Biso   1.000  C
  C1656    1.0000 0.72383  0.27617  0.22383  Biso   1.000  C
  C1657    1.0000 0.27617  0.22383  0.72383  Biso   1.000  C
  C1658    1.0000 0.72383  0.22383  0.27617  Biso   1.000  C
  C1659    1.0000 0.72383  0.77617  0.72383  Biso   1.000  C
  C1660    1.0000 0.27617  0.77617  0.27617  Biso   1.000  C
  C1661    1.0000 0.22383  0.27617  0.72383  Biso   1.000  C
  C1662    1.0000 0.22383  0.72383  0.27617  Biso   1.000  C
  C1663    1.0000 0.77617  0.27617  0.27617  Biso   1.000  C
  C1664    1.0000 0.77617  0.72383  0.72383  Biso   1.000  C
  C1665    1.0000 0.22383  0.77617  0.77617  Biso   1.000  C
  C1666    1.0000 0.22383  0.22383  0.22383  Biso   1.000  C
  C1667    1.0000 0.77617  0.22383  0.77617  Biso   1.000  C
  C1668    1.0000 0.77617  0.77617  0.22383  Biso   1.000  C
  C1669    1.0000 0.22383  0.77617  0.22383  Biso   1.000  C
  C1670    1.0000 0.22383  0.22383  0.77617  Biso   1.000  C
  C1671    1.0000 0.77617  0.77617  0.77617  Biso   1.000  C
  C1672    1.0000 0.77617  0.22383  0.22383  Biso   1.000  C
  O1       1.0000 0.58242  0.58242  0.00000  Biso   1.000  O
  O2       1.0000 0.58242  0.08242  0.66740  Biso   1.000  O
  O3       1.0000 0.08242  0.08242  1.00000  Biso   1.000  O
  O4       1.0000 0.08242  0.58242  0.66740  Biso   1.000  O
  O5       1.0000 0.66612  0.58242  0.08370  Biso   1.000  O
  O6       1.0000 0.99872  0.58242  0.58370  Biso   1.000  O
  O7       1.0000 0.66612  0.08242  0.58370  Biso   1.000  O
  O8       1.0000 0.99872  0.08242  0.08370  Biso   1.000  O
  O9       1.0000 0.58242  0.49872  0.08370  Biso   1.000  O
  O10      1.0000 0.08242  0.16612  0.08370  Biso   1.000  O
  O11      1.0000 0.08242  0.49872  0.58370  Biso   1.000  O
  O12      1.0000 0.58242  0.16612  0.58370  Biso   1.000  O
  O13      1.0000 0.08242  0.49872  0.08370  Biso   1.000  O
  O14      1.0000 0.08242  0.16612  0.58370  Biso   1.000  O
  O15      1.0000 0.58242  0.49872  0.58370  Biso   1.000  O
  O16      1.0000 0.58242  0.16612  0.08370  Biso   1.000  O
  O17      1.0000 0.99872  0.58242  0.08370  Biso   1.000  O
  O18      1.0000 0.66612  0.08242  0.08370  Biso   1.000  O
  O19      1.0000 0.99872  0.08242  0.58370  Biso   1.000  O
  O20      1.0000 0.66612  0.58242  0.58370  Biso   1.000  O
  O21      1.0000 0.08242  0.58242  1.00000  Biso   1.000  O
  O22      1.0000 0.58242  0.58242  0.66740  Biso   1.000  O
  O23      1.0000 0.58242  0.08242  1.00000  Biso   1.000  O
  O24      1.0000 0.08242  0.08242  0.66740  Biso   1.000  O
  O25      1.0000 0.08242  0.58242  0.50000  Biso   1.000  O
  O26      1.0000 0.08242  0.08242  0.16740  Biso   1.000  O
  O27      1.0000 0.58242  0.08242  0.50000  Biso   1.000  O
  O28      1.0000 0.58242  0.58242  0.16740  Biso   1.000  O
  O29      1.0000 0.16612  0.58242  0.58370  Biso   1.000  O
  O30      1.0000 0.49872  0.58242  0.08370  Biso   1.000  O
  O31      1.0000 0.16612  0.08242  0.08370  Biso   1.000  O
  O32      1.0000 0.49872  0.08242  0.58370  Biso   1.000  O
  O33      1.0000 0.49872  0.58242  0.58370  Biso   1.000  O
  O34      1.0000 0.16612  0.08242  0.58370  Biso   1.000  O
  O35      1.0000 0.49872  0.08242  0.08370  Biso   1.000  O
  O36      1.0000 0.16612  0.58242  0.08370  Biso   1.000  O
  O37      1.0000 0.58242  0.58242  0.50000  Biso   1.000  O
  O38      1.0000 0.08242  0.58242  0.16740  Biso   1.000  O
  O39      1.0000 0.08242  0.08242  0.50000  Biso   1.000  O
  O40      1.0000 0.58242  0.08242  0.16740  Biso   1.000  O
  O41      1.0000 0.08242  0.99872  0.08370  Biso   1.000  O
  O42      1.0000 0.58242  0.66612  0.08370  Biso   1.000  O
  O43      1.0000 0.58242  0.99872  0.58370  Biso   1.000  O
  O44      1.0000 0.08242  0.66612  0.58370  Biso   1.000  O
  O45      1.0000 0.58242  0.99872  0.08370  Biso   1.000  O
  O46      1.0000 0.58242  0.66612  0.58370  Biso   1.000  O
  O47      1.0000 0.08242  0.99872  0.58370  Biso   1.000  O
  O48      1.0000 0.08242  0.66612  0.08370  Biso   1.000  O
  O49      1.0000 0.58242  0.58242  0.96730  Biso   1.000  O
  O50      1.0000 0.58242  0.08242  0.70010  Biso   1.000  O
  O51      1.0000 0.08242  0.08242  0.96730  Biso   1.000  O
  O52      1.0000 0.08242  0.58242  0.70010  Biso   1.000  O
  O53      1.0000 0.69882  0.58242  0.08370  Biso   1.000  O
  O54      1.0000 0.96602  0.58242  0.58370  Biso   1.000  O
  O55      1.0000 0.69882  0.08242  0.58370  Biso   1.000  O
  O56      1.0000 0.96602  0.08242  0.08370  Biso   1.000  O
  O57      1.0000 0.58242  0.46602  0.08370  Biso   1.000  O
  O58      1.0000 0.08242  0.19882  0.08370  Biso   1.000  O
  O59      1.0000 0.08242  0.46602  0.58370  Biso   1.000  O
  O60      1.0000 0.58242  0.19882  0.58370  Biso   1.000  O
  O61      1.0000 0.08242  0.46602  0.08370  Biso   1.000  O
  O62      1.0000 0.08242  0.19882  0.58370  Biso   1.000  O
  O63      1.0000 0.58242  0.46602  0.58370  Biso   1.000  O
  O64      1.0000 0.58242  0.19882  0.08370  Biso   1.000  O
  O65      1.0000 0.96602  0.58242  0.08370  Biso   1.000  O
  O66      1.0000 0.69882  0.08242  0.08370  Biso   1.000  O
  O67      1.0000 0.96602  0.08242  0.58370  Biso   1.000  O
  O68      1.0000 0.69882  0.58242  0.58370  Biso   1.000  O
  O69      1.0000 0.08242  0.58242  0.96730  Biso   1.000  O
  O70      1.0000 0.58242  0.58242  0.70010  Biso   1.000  O
  O71      1.0000 0.58242  0.08242  0.96730  Biso   1.000  O
  O72      1.0000 0.08242  0.08242  0.70010  Biso   1.000  O
  O73      1.0000 0.08242  0.58242  0.46730  Biso   1.000  O
  O74      1.0000 0.08242  0.08242  0.20010  Biso   1.000  O
  O75      1.0000 0.58242  0.08242  0.46730  Biso   1.000  O
  O76      1.0000 0.58242  0.58242  0.20010  Biso   1.000  O
  O77      1.0000 0.19882  0.58242  0.58370  Biso   1.000  O
  O78      1.0000 0.46602  0.58242  0.08370  Biso   1.000  O
  O79      1.0000 0.19882  0.08242  0.08370  Biso   1.000  O
  O80      1.0000 0.46602  0.08242  0.58370  Biso   1.000  O
  O81      1.0000 0.46602  0.58242  0.58370  Biso   1.000  O
  O82      1.0000 0.19882  0.08242  0.58370  Biso   1.000  O
  O83      1.0000 0.46602  0.08242  0.08370  Biso   1.000  O
  O84      1.0000 0.19882  0.58242  0.08370  Biso   1.000  O
  O85      1.0000 0.58242  0.58242  0.46730  Biso   1.000  O
  O86      1.0000 0.08242  0.58242  0.20010  Biso   1.000  O
  O87      1.0000 0.08242  0.08242  0.46730  Biso   1.000  O
  O88      1.0000 0.58242  0.08242  0.20010  Biso   1.000  O
  O89      1.0000 0.08242  0.96602  0.08370  Biso   1.000  O
  O90      1.0000 0.58242  0.69882  0.08370  Biso   1.000  O
  O91      1.0000 0.58242  0.96602  0.58370  Biso   1.000  O
  O92      1.0000 0.08242  0.69882  0.58370  Biso   1.000  O
  O93      1.0000 0.58242  0.96602  0.08370  Biso   1.000  O
  O94      1.0000 0.58242  0.69882  0.58370  Biso   1.000  O
  O95      1.0000 0.08242  0.96602  0.58370  Biso   1.000  O
  O96      1.0000 0.08242  0.69882  0.08370  Biso   1.000  O
  O97      1.0000 0.60112  0.60112  0.94980  Biso   1.000  O
  O98      1.0000 0.60112  0.06372  0.71760  Biso   1.000  O
  O99      1.0000 0.06372  0.06372  0.94980  Biso   1.000  O
  O100     1.0000 0.06372  0.60112  0.71760  Biso   1.000  O
  O101     1.0000 0.71632  0.56372  0.10240  Biso   1.000  O
  O102     1.0000 0.94852  0.56372  0.56500  Biso   1.000  O
  O103     1.0000 0.71632  0.10112  0.56500  Biso   1.000  O
  O104     1.0000 0.94852  0.10112  0.10240  Biso   1.000  O
  O105     1.0000 0.56372  0.44852  0.06500  Biso   1.000  O
  O106     1.0000 0.10112  0.21632  0.06500  Biso   1.000  O
  O107     1.0000 0.10112  0.44852  0.60240  Biso   1.000  O
  O108     1.0000 0.56372  0.21632  0.60240  Biso   1.000  O
  O109     1.0000 0.06372  0.44852  0.10240  Biso   1.000  O
  O110     1.0000 0.06372  0.21632  0.56500  Biso   1.000  O
  O111     1.0000 0.60112  0.44852  0.56500  Biso   1.000  O
  O112     1.0000 0.60112  0.21632  0.10240  Biso   1.000  O
  O113     1.0000 0.94852  0.60112  0.06500  Biso   1.000  O
  O114     1.0000 0.71632  0.06372  0.06500  Biso   1.000  O
  O115     1.0000 0.94852  0.06372  0.60240  Biso   1.000  O
  O116     1.0000 0.71632  0.60112  0.60240  Biso   1.000  O
  O117     1.0000 0.10112  0.56372  0.94980  Biso   1.000  O
  O118     1.0000 0.56372  0.56372  0.71760  Biso   1.000  O
  O119     1.0000 0.56372  0.10112  0.94980  Biso   1.000  O
  O120     1.0000 0.10112  0.10112  0.71760  Biso   1.000  O
  O121     1.0000 0.10112  0.60112  0.44980  Biso   1.000  O
  O122     1.0000 0.10112  0.06372  0.21760  Biso   1.000  O
  O123     1.0000 0.56372  0.06372  0.44980  Biso   1.000  O
  O124     1.0000 0.56372  0.60112  0.21760  Biso   1.000  O
  O125     1.0000 0.21632  0.56372  0.60240  Biso   1.000  O
  O126     1.0000 0.44852  0.56372  0.06500  Biso   1.000  O
  O127     1.0000 0.21632  0.10112  0.06500  Biso   1.000  O
  O128     1.0000 0.44852  0.10112  0.60240  Biso   1.000  O
  O129     1.0000 0.06372  0.44852  0.56500  Biso   1.000  O
  O130     1.0000 0.60112  0.21632  0.56500  Biso   1.000  O
  O131     1.0000 0.60112  0.44852  0.10240  Biso   1.000  O
  O132     1.0000 0.06372  0.21632  0.10240  Biso   1.000  O
  O133     1.0000 0.56372  0.44852  0.60240  Biso   1.000  O
  O134     1.0000 0.56372  0.21632  0.06500  Biso   1.000  O
  O135     1.0000 0.10112  0.44852  0.06500  Biso   1.000  O
  O136     1.0000 0.10112  0.21632  0.60240  Biso   1.000  O
  O137     1.0000 0.44852  0.60112  0.56500  Biso   1.000  O
  O138     1.0000 0.21632  0.06372  0.56500  Biso   1.000  O
  O139     1.0000 0.44852  0.06372  0.10240  Biso   1.000  O
  O140     1.0000 0.21632  0.60112  0.10240  Biso   1.000  O
  O141     1.0000 0.60112  0.56372  0.44980  Biso   1.000  O
  O142     1.0000 0.06372  0.56372  0.21760  Biso   1.000  O
  O143     1.0000 0.06372  0.10112  0.44980  Biso   1.000  O
  O144     1.0000 0.60112  0.10112  0.21760  Biso   1.000  O
  O145     1.0000 0.10112  0.10112  0.94980  Biso   1.000  O
  O146     1.0000 0.10112  0.56372  0.71760  Biso   1.000  O
  O147     1.0000 0.56372  0.56372  0.94980  Biso   1.000  O
  O148     1.0000 0.56372  0.10112  0.71760  Biso   1.000  O
  O149     1.0000 0.21632  0.06372  0.10240  Biso   1.000  O
  O150     1.0000 0.44852  0.06372  0.56500  Biso   1.000  O
  O151     1.0000 0.21632  0.60112  0.56500  Biso   1.000  O
  O152     1.0000 0.44852  0.60112  0.10240  Biso   1.000  O
  O153     1.0000 0.06372  0.94852  0.06500  Biso   1.000  O
  O154     1.0000 0.60112  0.71632  0.06500  Biso   1.000  O
  O155     1.0000 0.60112  0.94852  0.60240  Biso   1.000  O
  O156     1.0000 0.06372  0.71632  0.60240  Biso   1.000  O
  O157     1.0000 0.56372  0.94852  0.10240  Biso   1.000  O
  O158     1.0000 0.56372  0.71632  0.56500  Biso   1.000  O
  O159     1.0000 0.10112  0.94852  0.56500  Biso   1.000  O
  O160     1.0000 0.10112  0.71632  0.10240  Biso   1.000  O
  O161     1.0000 0.44852  0.10112  0.06500  Biso   1.000  O
  O162     1.0000 0.21632  0.56372  0.06500  Biso   1.000  O
  O163     1.0000 0.44852  0.56372  0.60240  Biso   1.000  O
  O164     1.0000 0.21632  0.10112  0.60240  Biso   1.000  O
  O165     1.0000 0.60112  0.06372  0.94980  Biso   1.000  O
  O166     1.0000 0.06372  0.06372  0.71760  Biso   1.000  O
  O167     1.0000 0.06372  0.60112  0.94980  Biso   1.000  O
  O168     1.0000 0.60112  0.60112  0.71760  Biso   1.000  O
  O169     1.0000 0.60112  0.10112  0.44980  Biso   1.000  O
  O170     1.0000 0.60112  0.56372  0.21760  Biso   1.000  O
  O171     1.0000 0.06372  0.56372  0.44980  Biso   1.000  O
  O172     1.0000 0.06372  0.10112  0.21760  Biso   1.000  O
  O173     1.0000 0.71632  0.06372  0.60240  Biso   1.000  O
  O174     1.0000 0.94852  0.06372  0.06500  Biso   1.000  O
  O175     1.0000 0.71632  0.60112  0.06500  Biso   1.000  O
  O176     1.0000 0.94852  0.60112  0.60240  Biso   1.000  O
  O177     1.0000 0.56372  0.94852  0.56500  Biso   1.000  O
  O178     1.0000 0.10112  0.71632  0.56500  Biso   1.000  O
  O179     1.0000 0.10112  0.94852  0.10240  Biso   1.000  O
  O180     1.0000 0.56372  0.71632  0.10240  Biso   1.000  O
  O181     1.0000 0.06372  0.94852  0.60240  Biso   1.000  O
  O182     1.0000 0.06372  0.71632  0.06500  Biso   1.000  O
  O183     1.0000 0.60112  0.94852  0.06500  Biso   1.000  O
  O184     1.0000 0.60112  0.71632  0.60240  Biso   1.000  O
  O185     1.0000 0.94852  0.10112  0.56500  Biso   1.000  O
  O186     1.0000 0.71632  0.56372  0.56500  Biso   1.000  O
  O187     1.0000 0.94852  0.56372  0.10240  Biso   1.000  O
  O188     1.0000 0.71632  0.10112  0.10240  Biso   1.000  O
  O189     1.0000 0.10112  0.06372  0.44980  Biso   1.000  O
  O190     1.0000 0.56372  0.06372  0.21760  Biso   1.000  O
  O191     1.0000 0.56372  0.60112  0.44980  Biso   1.000  O
  O192     1.0000 0.10112  0.60112  0.21760  Biso   1.000  O
  O193     1.0000 0.61462  0.61462  0.95990  Biso   1.000  O
  O194     1.0000 0.61462  0.05022  0.70750  Biso   1.000  O
  O195     1.0000 0.05022  0.05022  0.95990  Biso   1.000  O
  O196     1.0000 0.05022  0.61462  0.70750  Biso   1.000  O
  O197     1.0000 0.70622  0.55022  0.11590  Biso   1.000  O
  O198     1.0000 0.95862  0.55022  0.55150  Biso   1.000  O
  O199     1.0000 0.70622  0.11462  0.55150  Biso   1.000  O
  O200     1.0000 0.95862  0.11462  0.11590  Biso   1.000  O
  O201     1.0000 0.55022  0.45862  0.05150  Biso   1.000  O
  O202     1.0000 0.11462  0.20622  0.05150  Biso   1.000  O
  O203     1.0000 0.11462  0.45862  0.61590  Biso   1.000  O
  O204     1.0000 0.55022  0.20622  0.61590  Biso   1.000  O
  O205     1.0000 0.05022  0.45862  0.11590  Biso   1.000  O
  O206     1.0000 0.05022  0.20622  0.55150  Biso   1.000  O
  O207     1.0000 0.61462  0.45862  0.55150  Biso   1.000  O
  O208     1.0000 0.61462  0.20622  0.11590  Biso   1.000  O
  O209     1.0000 0.95862  0.61462  0.05150  Biso   1.000  O
  O210     1.0000 0.70622  0.05022  0.05150  Biso   1.000  O
  O211     1.0000 0.95862  0.05022  0.61590  Biso   1.000  O
  O212     1.0000 0.70622  0.61462  0.61590  Biso   1.000  O
  O213     1.0000 0.11462  0.55022  0.95990  Biso   1.000  O
  O214     1.0000 0.55022  0.55022  0.70750  Biso   1.000  O
  O215     1.0000 0.55022  0.11462  0.95990  Biso   1.000  O
  O216     1.0000 0.11462  0.11462  0.70750  Biso   1.000  O
  O217     1.0000 0.11462  0.61462  0.45990  Biso   1.000  O
  O218     1.0000 0.11462  0.05022  0.20750  Biso   1.000  O
  O219     1.0000 0.55022  0.05022  0.45990  Biso   1.000  O
  O220     1.0000 0.55022  0.61462  0.20750  Biso   1.000  O
  O221     1.0000 0.20622  0.55022  0.61590  Biso   1.000  O
  O222     1.0000 0.45862  0.55022  0.05150  Biso   1.000  O
  O223     1.0000 0.20622  0.11462  0.05150  Biso   1.000  O
  O224     1.0000 0.45862  0.11462  0.61590  Biso   1.000  O
  O225     1.0000 0.05022  0.45862  0.55150  Biso   1.000  O
  O226     1.0000 0.61462  0.20622  0.55150  Biso   1.000  O
  O227     1.0000 0.61462  0.45862  0.11590  Biso   1.000  O
  O228     1.0000 0.05022  0.20622  0.11590  Biso   1.000  O
  O229     1.0000 0.55022  0.45862  0.61590  Biso   1.000  O
  O230     1.0000 0.55022  0.20622  0.05150  Biso   1.000  O
  O231     1.0000 0.11462  0.45862  0.05150  Biso   1.000  O
  O232     1.0000 0.11462  0.20622  0.61590  Biso   1.000  O
  O233     1.0000 0.45862  0.61462  0.55150  Biso   1.000  O
  O234     1.0000 0.20622  0.05022  0.55150  Biso   1.000  O
  O235     1.0000 0.45862  0.05022  0.11590  Biso   1.000  O
  O236     1.0000 0.20622  0.61462  0.11590  Biso   1.000  O
  O237     1.0000 0.61462  0.55022  0.45990  Biso   1.000  O
  O238     1.0000 0.05022  0.55022  0.20750  Biso   1.000  O
  O239     1.0000 0.05022  0.11462  0.45990  Biso   1.000  O
  O240     1.0000 0.61462  0.11462  0.20750  Biso   1.000  O
  O241     1.0000 0.11462  0.11462  0.95990  Biso   1.000  O
  O242     1.0000 0.11462  0.55022  0.70750  Biso   1.000  O
  O243     1.0000 0.55022  0.55022  0.95990  Biso   1.000  O
  O244     1.0000 0.55022  0.11462  0.70750  Biso   1.000  O
  O245     1.0000 0.20622  0.05022  0.11590  Biso   1.000  O
  O246     1.0000 0.45862  0.05022  0.55150  Biso   1.000  O
  O247     1.0000 0.20622  0.61462  0.55150  Biso   1.000  O
  O248     1.0000 0.45862  0.61462  0.11590  Biso   1.000  O
  O249     1.0000 0.05022  0.95862  0.05150  Biso   1.000  O
  O250     1.0000 0.61462  0.70622  0.05150  Biso   1.000  O
  O251     1.0000 0.61462  0.95862  0.61590  Biso   1.000  O
  O252     1.0000 0.05022  0.70622  0.61590  Biso   1.000  O
  O253     1.0000 0.55022  0.95862  0.11590  Biso   1.000  O
  O254     1.0000 0.55022  0.70622  0.55150  Biso   1.000  O
  O255     1.0000 0.11462  0.95862  0.55150  Biso   1.000  O
  O256     1.0000 0.11462  0.70622  0.11590  Biso   1.000  O
  O257     1.0000 0.45862  0.11462  0.05150  Biso   1.000  O
  O258     1.0000 0.20622  0.55022  0.05150  Biso   1.000  O
  O259     1.0000 0.45862  0.55022  0.61590  Biso   1.000  O
  O260     1.0000 0.20622  0.11462  0.61590  Biso   1.000  O
  O261     1.0000 0.61462  0.05022  0.95990  Biso   1.000  O
  O262     1.0000 0.05022  0.05022  0.70750  Biso   1.000  O
  O263     1.0000 0.05022  0.61462  0.95990  Biso   1.000  O
  O264     1.0000 0.61462  0.61462  0.70750  Biso   1.000  O
  O265     1.0000 0.61462  0.11462  0.45990  Biso   1.000  O
  O266     1.0000 0.61462  0.55022  0.20750  Biso   1.000  O
  O267     1.0000 0.05022  0.55022  0.45990  Biso   1.000  O
  O268     1.0000 0.05022  0.11462  0.20750  Biso   1.000  O
  O269     1.0000 0.70622  0.05022  0.61590  Biso   1.000  O
  O270     1.0000 0.95862  0.05022  0.05150  Biso   1.000  O
  O271     1.0000 0.70622  0.61462  0.05150  Biso   1.000  O
  O272     1.0000 0.95862  0.61462  0.61590  Biso   1.000  O
  O273     1.0000 0.55022  0.95862  0.55150  Biso   1.000  O
  O274     1.0000 0.11462  0.70622  0.55150  Biso   1.000  O
  O275     1.0000 0.11462  0.95862  0.11590  Biso   1.000  O
  O276     1.0000 0.55022  0.70622  0.11590  Biso   1.000  O
  O277     1.0000 0.05022  0.95862  0.61590  Biso   1.000  O
  O278     1.0000 0.05022  0.70622  0.05150  Biso   1.000  O
  O279     1.0000 0.61462  0.95862  0.05150  Biso   1.000  O
  O280     1.0000 0.61462  0.70622  0.61590  Biso   1.000  O
  O281     1.0000 0.95862  0.11462  0.55150  Biso   1.000  O
  O282     1.0000 0.70622  0.55022  0.55150  Biso   1.000  O
  O283     1.0000 0.95862  0.55022  0.11590  Biso   1.000  O
  O284     1.0000 0.70622  0.11462  0.11590  Biso   1.000  O
  O285     1.0000 0.11462  0.05022  0.45990  Biso   1.000  O
  O286     1.0000 0.55022  0.05022  0.20750  Biso   1.000  O
  O287     1.0000 0.55022  0.61462  0.45990  Biso   1.000  O
  O288     1.0000 0.11462  0.61462  0.20750  Biso   1.000  O
  O289     1.0000 0.60062  0.60062  0.91660  Biso   1.000  O
  O290     1.0000 0.60062  0.06422  0.75080  Biso   1.000  O
  O291     1.0000 0.06422  0.06422  0.91660  Biso   1.000  O
  O292     1.0000 0.06422  0.60062  0.75080  Biso   1.000  O
  O293     1.0000 0.74952  0.56422  0.10190  Biso   1.000  O
  O294     1.0000 0.91532  0.56422  0.56550  Biso   1.000  O
  O295     1.0000 0.74952  0.10062  0.56550  Biso   1.000  O
  O296     1.0000 0.91532  0.10062  0.10190  Biso   1.000  O
  O297     1.0000 0.56422  0.41532  0.06550  Biso   1.000  O
  O298     1.0000 0.10062  0.24952  0.06550  Biso   1.000  O
  O299     1.0000 0.10062  0.41532  0.60190  Biso   1.000  O
  O300     1.0000 0.56422  0.24952  0.60190  Biso   1.000  O
  O301     1.0000 0.06422  0.41532  0.10190  Biso   1.000  O
  O302     1.0000 0.06422  0.24952  0.56550  Biso   1.000  O
  O303     1.0000 0.60062  0.41532  0.56550  Biso   1.000  O
  O304     1.0000 0.60062  0.24952  0.10190  Biso   1.000  O
  O305     1.0000 0.91532  0.60062  0.06550  Biso   1.000  O
  O306     1.0000 0.74952  0.06422  0.06550  Biso   1.000  O
  O307     1.0000 0.91532  0.06422  0.60190  Biso   1.000  O
  O308     1.0000 0.74952  0.60062  0.60190  Biso   1.000  O
  O309     1.0000 0.10062  0.56422  0.91660  Biso   1.000  O
  O310     1.0000 0.56422  0.56422  0.75080  Biso   1.000  O
  O311     1.0000 0.56422  0.10062  0.91660  Biso   1.000  O
  O312     1.0000 0.10062  0.10062  0.75080  Biso   1.000  O
  O313     1.0000 0.10062  0.60062  0.41660  Biso   1.000  O
  O314     1.0000 0.10062  0.06422  0.25080  Biso   1.000  O
  O315     1.0000 0.56422  0.06422  0.41660  Biso   1.000  O
  O316     1.0000 0.56422  0.60062  0.25080  Biso   1.000  O
  O317     1.0000 0.24952  0.56422  0.60190  Biso   1.000  O
  O318     1.0000 0.41532  0.56422  0.06550  Biso   1.000  O
  O319     1.0000 0.24952  0.10062  0.06550  Biso   1.000  O
  O320     1.0000 0.41532  0.10062  0.60190  Biso   1.000  O
  O321     1.0000 0.06422  0.41532  0.56550  Biso   1.000  O
  O322     1.0000 0.60062  0.24952  0.56550  Biso   1.000  O
  O323     1.0000 0.60062  0.41532  0.10190  Biso   1.000  O
  O324     1.0000 0.06422  0.24952  0.10190  Biso   1.000  O
  O325     1.0000 0.56422  0.41532  0.60190  Biso   1.000  O
  O326     1.0000 0.56422  0.24952  0.06550  Biso   1.000  O
  O327     1.0000 0.10062  0.41532  0.06550  Biso   1.000  O
  O328     1.0000 0.10062  0.24952  0.60190  Biso   1.000  O
  O329     1.0000 0.41532  0.60062  0.56550  Biso   1.000  O
  O330     1.0000 0.24952  0.06422  0.56550  Biso   1.000  O
  O331     1.0000 0.41532  0.06422  0.10190  Biso   1.000  O
  O332     1.0000 0.24952  0.60062  0.10190  Biso   1.000  O
  O333     1.0000 0.60062  0.56422  0.41660  Biso   1.000  O
  O334     1.0000 0.06422  0.56422  0.25080  Biso   1.000  O
  O335     1.0000 0.06422  0.10062  0.41660  Biso   1.000  O
  O336     1.0000 0.60062  0.10062  0.25080  Biso   1.000  O
  O337     1.0000 0.10062  0.10062  0.91660  Biso   1.000  O
  O338     1.0000 0.10062  0.56422  0.75080  Biso   1.000  O
  O339     1.0000 0.56422  0.56422  0.91660  Biso   1.000  O
  O340     1.0000 0.56422  0.10062  0.75080  Biso   1.000  O
  O341     1.0000 0.24952  0.06422  0.10190  Biso   1.000  O
  O342     1.0000 0.41532  0.06422  0.56550  Biso   1.000  O
  O343     1.0000 0.24952  0.60062  0.56550  Biso   1.000  O
  O344     1.0000 0.41532  0.60062  0.10190  Biso   1.000  O
  O345     1.0000 0.06422  0.91532  0.06550  Biso   1.000  O
  O346     1.0000 0.60062  0.74952  0.06550  Biso   1.000  O
  O347     1.0000 0.60062  0.91532  0.60190  Biso   1.000  O
  O348     1.0000 0.06422  0.74952  0.60190  Biso   1.000  O
  O349     1.0000 0.56422  0.91532  0.10190  Biso   1.000  O
  O350     1.0000 0.56422  0.74952  0.56550  Biso   1.000  O
  O351     1.0000 0.10062  0.91532  0.56550  Biso   1.000  O
  O352     1.0000 0.10062  0.74952  0.10190  Biso   1.000  O
  O353     1.0000 0.41532  0.10062  0.06550  Biso   1.000  O
  O354     1.0000 0.24952  0.56422  0.06550  Biso   1.000  O
  O355     1.0000 0.41532  0.56422  0.60190  Biso   1.000  O
  O356     1.0000 0.24952  0.10062  0.60190  Biso   1.000  O
  O357     1.0000 0.60062  0.06422  0.91660  Biso   1.000  O
  O358     1.0000 0.06422  0.06422  0.75080  Biso   1.000  O
  O359     1.0000 0.06422  0.60062  0.91660  Biso   1.000  O
  O360     1.0000 0.60062  0.60062  0.75080  Biso   1.000  O
  O361     1.0000 0.60062  0.10062  0.41660  Biso   1.000  O
  O362     1.0000 0.60062  0.56422  0.25080  Biso   1.000  O
  O363     1.0000 0.06422  0.56422  0.41660  Biso   1.000  O
  O364     1.0000 0.06422  0.10062  0.25080  Biso   1.000  O
  O365     1.0000 0.74952  0.06422  0.60190  Biso   1.000  O
  O366     1.0000 0.91532  0.06422  0.06550  Biso   1.000  O
  O367     1.0000 0.74952  0.60062  0.06550  Biso   1.000  O
  O368     1.0000 0.91532  0.60062  0.60190  Biso   1.000  O
  O369     1.0000 0.56422  0.91532  0.56550  Biso   1.000  O
  O370     1.0000 0.10062  0.74952  0.56550  Biso   1.000  O
  O371     1.0000 0.10062  0.91532  0.10190  Biso   1.000  O
  O372     1.0000 0.56422  0.74952  0.10190  Biso   1.000  O
  O373     1.0000 0.06422  0.91532  0.60190  Biso   1.000  O
  O374     1.0000 0.06422  0.74952  0.06550  Biso   1.000  O
  O375     1.0000 0.60062  0.91532  0.06550  Biso   1.000  O
  O376     1.0000 0.60062  0.74952  0.60190  Biso   1.000  O
  O377     1.0000 0.91532  0.10062  0.56550  Biso   1.000  O
  O378     1.0000 0.74952  0.56422  0.56550  Biso   1.000  O
  O379     1.0000 0.91532  0.56422  0.10190  Biso   1.000  O
  O380     1.0000 0.74952  0.10062  0.10190  Biso   1.000  O
  O381     1.0000 0.10062  0.06422  0.41660  Biso   1.000  O
  O382     1.0000 0.56422  0.06422  0.25080  Biso   1.000  O
  O383     1.0000 0.56422  0.60062  0.41660  Biso   1.000  O
  O384     1.0000 0.10062  0.60062  0.25080  Biso   1.000  O
  O385     1.0000 0.61412  0.61412  0.90640  Biso   1.000  O
  O386     1.0000 0.61412  0.05072  0.76100  Biso   1.000  O
  O387     1.0000 0.05072  0.05072  0.90640  Biso   1.000  O
  O388     1.0000 0.05072  0.61412  0.76100  Biso   1.000  O
  O389     1.0000 0.75972  0.55072  0.11540  Biso   1.000  O
  O390     1.0000 0.90512  0.55072  0.55200  Biso   1.000  O
  O391     1.0000 0.75972  0.11412  0.55200  Biso   1.000  O
  O392     1.0000 0.90512  0.11412  0.11540  Biso   1.000  O
  O393     1.0000 0.55072  0.40512  0.05200  Biso   1.000  O
  O394     1.0000 0.11412  0.25972  0.05200  Biso   1.000  O
  O395     1.0000 0.11412  0.40512  0.61540  Biso   1.000  O
  O396     1.0000 0.55072  0.25972  0.61540  Biso   1.000  O
  O397     1.0000 0.05072  0.40512  0.11540  Biso   1.000  O
  O398     1.0000 0.05072  0.25972  0.55200  Biso   1.000  O
  O399     1.0000 0.61412  0.40512  0.55200  Biso   1.000  O
  O400     1.0000 0.61412  0.25972  0.11540  Biso   1.000  O
  O401     1.0000 0.90512  0.61412  0.05200  Biso   1.000  O
  O402     1.0000 0.75972  0.05072  0.05200  Biso   1.000  O
  O403     1.0000 0.90512  0.05072  0.61540  Biso   1.000  O
  O404     1.0000 0.75972  0.61412  0.61540  Biso   1.000  O
  O405     1.0000 0.11412  0.55072  0.90640  Biso   1.000  O
  O406     1.0000 0.55072  0.55072  0.76100  Biso   1.000  O
  O407     1.0000 0.55072  0.11412  0.90640  Biso   1.000  O
  O408     1.0000 0.11412  0.11412  0.76100  Biso   1.000  O
  O409     1.0000 0.11412  0.61412  0.40640  Biso   1.000  O
  O410     1.0000 0.11412  0.05072  0.26100  Biso   1.000  O
  O411     1.0000 0.55072  0.05072  0.40640  Biso   1.000  O
  O412     1.0000 0.55072  0.61412  0.26100  Biso   1.000  O
  O413     1.0000 0.25972  0.55072  0.61540  Biso   1.000  O
  O414     1.0000 0.40512  0.55072  0.05200  Biso   1.000  O
  O415     1.0000 0.25972  0.11412  0.05200  Biso   1.000  O
  O416     1.0000 0.40512  0.11412  0.61540  Biso   1.000  O
  O417     1.0000 0.05072  0.40512  0.55200  Biso   1.000  O
  O418     1.0000 0.61412  0.25972  0.55200  Biso   1.000  O
  O419     1.0000 0.61412  0.40512  0.11540  Biso   1.000  O
  O420     1.0000 0.05072  0.25972  0.11540  Biso   1.000  O
  O421     1.0000 0.55072  0.40512  0.61540  Biso   1.000  O
  O422     1.0000 0.55072  0.25972  0.05200  Biso   1.000  O
  O423     1.0000 0.11412  0.40512  0.05200  Biso   1.000  O
  O424     1.0000 0.11412  0.25972  0.61540  Biso   1.000  O
  O425     1.0000 0.40512  0.61412  0.55200  Biso   1.000  O
  O426     1.0000 0.25972  0.05072  0.55200  Biso   1.000  O
  O427     1.0000 0.40512  0.05072  0.11540  Biso   1.000  O
  O428     1.0000 0.25972  0.61412  0.11540  Biso   1.000  O
  O429     1.0000 0.61412  0.55072  0.40640  Biso   1.000  O
  O430     1.0000 0.05072  0.55072  0.26100  Biso   1.000  O
  O431     1.0000 0.05072  0.11412  0.40640  Biso   1.000  O
  O432     1.0000 0.61412  0.11412  0.26100  Biso   1.000  O
  O433     1.0000 0.11412  0.11412  0.90640  Biso   1.000  O
  O434     1.0000 0.11412  0.55072  0.76100  Biso   1.000  O
  O435     1.0000 0.55072  0.55072  0.90640  Biso   1.000  O
  O436     1.0000 0.55072  0.11412  0.76100  Biso   1.000  O
  O437     1.0000 0.25972  0.05072  0.11540  Biso   1.000  O
  O438     1.0000 0.40512  0.05072  0.55200  Biso   1.000  O
  O439     1.0000 0.25972  0.61412  0.55200  Biso   1.000  O
  O440     1.0000 0.40512  0.61412  0.11540  Biso   1.000  O
  O441     1.0000 0.05072  0.90512  0.05200  Biso   1.000  O
  O442     1.0000 0.61412  0.75972  0.05200  Biso   1.000  O
  O443     1.0000 0.61412  0.90512  0.61540  Biso   1.000  O
  O444     1.0000 0.05072  0.75972  0.61540  Biso   1.000  O
  O445     1.0000 0.55072  0.90512  0.11540  Biso   1.000  O
  O446     1.0000 0.55072  0.75972  0.55200  Biso   1.000  O
  O447     1.0000 0.11412  0.90512  0.55200  Biso   1.000  O
  O448     1.0000 0.11412  0.75972  0.11540  Biso   1.000  O
  O449     1.0000 0.40512  0.11412  0.05200  Biso   1.000  O
  O450     1.0000 0.25972  0.55072  0.05200  Biso   1.000  O
  O451     1.0000 0.40512  0.55072  0.61540  Biso   1.000  O
  O452     1.0000 0.25972  0.11412  0.61540  Biso   1.000  O
  O453     1.0000 0.61412  0.05072  0.90640  Biso   1.000  O
  O454     1.0000 0.05072  0.05072  0.76100  Biso   1.000  O
  O455     1.0000 0.05072  0.61412  0.90640  Biso   1.000  O
  O456     1.0000 0.61412  0.61412  0.76100  Biso   1.000  O
  O457     1.0000 0.61412  0.11412  0.40640  Biso   1.000  O
  O458     1.0000 0.61412  0.55072  0.26100  Biso   1.000  O
  O459     1.0000 0.05072  0.55072  0.40640  Biso   1.000  O
  O460     1.0000 0.05072  0.11412  0.26100  Biso   1.000  O
  O461     1.0000 0.75972  0.05072  0.61540  Biso   1.000  O
  O462     1.0000 0.90512  0.05072  0.05200  Biso   1.000  O
  O463     1.0000 0.75972  0.61412  0.05200  Biso   1.000  O
  O464     1.0000 0.90512  0.61412  0.61540  Biso   1.000  O
  O465     1.0000 0.55072  0.90512  0.55200  Biso   1.000  O
  O466     1.0000 0.11412  0.75972  0.55200  Biso   1.000  O
  O467     1.0000 0.11412  0.90512  0.11540  Biso   1.000  O
  O468     1.0000 0.55072  0.75972  0.11540  Biso   1.000  O
  O469     1.0000 0.05072  0.90512  0.61540  Biso   1.000  O
  O470     1.0000 0.05072  0.75972  0.05200  Biso   1.000  O
  O471     1.0000 0.61412  0.90512  0.05200  Biso   1.000  O
  O472     1.0000 0.61412  0.75972  0.61540  Biso   1.000  O
  O473     1.0000 0.90512  0.11412  0.55200  Biso   1.000  O
  O474     1.0000 0.75972  0.55072  0.55200  Biso   1.000  O
  O475     1.0000 0.90512  0.55072  0.11540  Biso   1.000  O
  O476     1.0000 0.75972  0.11412  0.11540  Biso   1.000  O
  O477     1.0000 0.11412  0.05072  0.40640  Biso   1.000  O
  O478     1.0000 0.55072  0.05072  0.26100  Biso   1.000  O
  O479     1.0000 0.55072  0.61412  0.40640  Biso   1.000  O
  O480     1.0000 0.11412  0.61412  0.26100  Biso   1.000  O
  O481     1.0000 0.58242  0.58242  0.89860  Biso   1.000  O
  O482     1.0000 0.58242  0.08242  0.76880  Biso   1.000  O
  O483     1.0000 0.08242  0.08242  0.89860  Biso   1.000  O
  O484     1.0000 0.08242  0.58242  0.76880  Biso   1.000  O
  O485     1.0000 0.76752  0.58242  0.08370  Biso   1.000  O
  O486     1.0000 0.89732  0.58242  0.58370  Biso   1.000  O
  O487     1.0000 0.76752  0.08242  0.58370  Biso   1.000  O
  O488     1.0000 0.89732  0.08242  0.08370  Biso   1.000  O
  O489     1.0000 0.58242  0.39732  0.08370  Biso   1.000  O
  O490     1.0000 0.08242  0.26752  0.08370  Biso   1.000  O
  O491     1.0000 0.08242  0.39732  0.58370  Biso   1.000  O
  O492     1.0000 0.58242  0.26752  0.58370  Biso   1.000  O
  O493     1.0000 0.08242  0.39732  0.08370  Biso   1.000  O
  O494     1.0000 0.08242  0.26752  0.58370  Biso   1.000  O
  O495     1.0000 0.58242  0.39732  0.58370  Biso   1.000  O
  O496     1.0000 0.58242  0.26752  0.08370  Biso   1.000  O
  O497     1.0000 0.89732  0.58242  0.08370  Biso   1.000  O
  O498     1.0000 0.76752  0.08242  0.08370  Biso   1.000  O
  O499     1.0000 0.89732  0.08242  0.58370  Biso   1.000  O
  O500     1.0000 0.76752  0.58242  0.58370  Biso   1.000  O
  O501     1.0000 0.08242  0.58242  0.89860  Biso   1.000  O
  O502     1.0000 0.58242  0.58242  0.76880  Biso   1.000  O
  O503     1.0000 0.58242  0.08242  0.89860  Biso   1.000  O
  O504     1.0000 0.08242  0.08242  0.76880  Biso   1.000  O
  O505     1.0000 0.08242  0.58242  0.39860  Biso   1.000  O
  O506     1.0000 0.08242  0.08242  0.26880  Biso   1.000  O
  O507     1.0000 0.58242  0.08242  0.39860  Biso   1.000  O
  O508     1.0000 0.58242  0.58242  0.26880  Biso   1.000  O
  O509     1.0000 0.26752  0.58242  0.58370  Biso   1.000  O
  O510     1.0000 0.39732  0.58242  0.08370  Biso   1.000  O
  O511     1.0000 0.26752  0.08242  0.08370  Biso   1.000  O
  O512     1.0000 0.39732  0.08242  0.58370  Biso   1.000  O
  O513     1.0000 0.39732  0.58242  0.58370  Biso   1.000  O
  O514     1.0000 0.26752  0.08242  0.58370  Biso   1.000  O
  O515     1.0000 0.39732  0.08242  0.08370  Biso   1.000  O
  O516     1.0000 0.26752  0.58242  0.08370  Biso   1.000  O
  O517     1.0000 0.58242  0.58242  0.39860  Biso   1.000  O
  O518     1.0000 0.08242  0.58242  0.26880  Biso   1.000  O
  O519     1.0000 0.08242  0.08242  0.39860  Biso   1.000  O
  O520     1.0000 0.58242  0.08242  0.26880  Biso   1.000  O
  O521     1.0000 0.08242  0.89732  0.08370  Biso   1.000  O
  O522     1.0000 0.58242  0.76752  0.08370  Biso   1.000  O
  O523     1.0000 0.58242  0.89732  0.58370  Biso   1.000  O
  O524     1.0000 0.08242  0.76752  0.58370  Biso   1.000  O
  O525     1.0000 0.58242  0.89732  0.08370  Biso   1.000  O
  O526     1.0000 0.58242  0.76752  0.58370  Biso   1.000  O
  O527     1.0000 0.08242  0.89732  0.58370  Biso   1.000  O
  O528     1.0000 0.08242  0.76752  0.08370  Biso   1.000  O
  O529     1.0000 0.58242  0.58242  0.86650  Biso   1.000  O
  O530     1.0000 0.58242  0.08242  0.80090  Biso   1.000  O
  O531     1.0000 0.08242  0.08242  0.86650  Biso   1.000  O
  O532     1.0000 0.08242  0.58242  0.80090  Biso   1.000  O
  O533     1.0000 0.79962  0.58242  0.08370  Biso   1.000  O
  O534     1.0000 0.86522  0.58242  0.58370  Biso   1.000  O
  O535     1.0000 0.79962  0.08242  0.58370  Biso   1.000  O
  O536     1.0000 0.86522  0.08242  0.08370  Biso   1.000  O
  O537     1.0000 0.58242  0.36522  0.08370  Biso   1.000  O
  O538     1.0000 0.08242  0.29962  0.08370  Biso   1.000  O
  O539     1.0000 0.08242  0.36522  0.58370  Biso   1.000  O
  O540     1.0000 0.58242  0.29962  0.58370  Biso   1.000  O
  O541     1.0000 0.08242  0.36522  0.08370  Biso   1.000  O
  O542     1.0000 0.08242  0.29962  0.58370  Biso   1.000  O
  O543     1.0000 0.58242  0.36522  0.58370  Biso   1.000  O
  O544     1.0000 0.58242  0.29962  0.08370  Biso   1.000  O
  O545     1.0000 0.86522  0.58242  0.08370  Biso   1.000  O
  O546     1.0000 0.79962  0.08242  0.08370  Biso   1.000  O
  O547     1.0000 0.86522  0.08242  0.58370  Biso   1.000  O
  O548     1.0000 0.79962  0.58242  0.58370  Biso   1.000  O
  O549     1.0000 0.08242  0.58242  0.86650  Biso   1.000  O
  O550     1.0000 0.58242  0.58242  0.80090  Biso   1.000  O
  O551     1.0000 0.58242  0.08242  0.86650  Biso   1.000  O
  O552     1.0000 0.08242  0.08242  0.80090  Biso   1.000  O
  O553     1.0000 0.08242  0.58242  0.36650  Biso   1.000  O
  O554     1.0000 0.08242  0.08242  0.30090  Biso   1.000  O
  O555     1.0000 0.58242  0.08242  0.36650  Biso   1.000  O
  O556     1.0000 0.58242  0.58242  0.30090  Biso   1.000  O
  O557     1.0000 0.29962  0.58242  0.58370  Biso   1.000  O
  O558     1.0000 0.36522  0.58242  0.08370  Biso   1.000  O
  O559     1.0000 0.29962  0.08242  0.08370  Biso   1.000  O
  O560     1.0000 0.36522  0.08242  0.58370  Biso   1.000  O
  O561     1.0000 0.36522  0.58242  0.58370  Biso   1.000  O
  O562     1.0000 0.29962  0.08242  0.58370  Biso   1.000  O
  O563     1.0000 0.36522  0.08242  0.08370  Biso   1.000  O
  O564     1.0000 0.29962  0.58242  0.08370  Biso   1.000  O
  O565     1.0000 0.58242  0.58242  0.36650  Biso   1.000  O
  O566     1.0000 0.08242  0.58242  0.30090  Biso   1.000  O
  O567     1.0000 0.08242  0.08242  0.36650  Biso   1.000  O
  O568     1.0000 0.58242  0.08242  0.30090  Biso   1.000  O
  O569     1.0000 0.08242  0.86522  0.08370  Biso   1.000  O
  O570     1.0000 0.58242  0.79962  0.08370  Biso   1.000  O
  O571     1.0000 0.58242  0.86522  0.58370  Biso   1.000  O
  O572     1.0000 0.08242  0.79962  0.58370  Biso   1.000  O
  O573     1.0000 0.58242  0.86522  0.08370  Biso   1.000  O
  O574     1.0000 0.58242  0.79962  0.58370  Biso   1.000  O
  O575     1.0000 0.08242  0.86522  0.58370  Biso   1.000  O
  O576     1.0000 0.08242  0.79962  0.08370  Biso   1.000  O
  O577     1.0000 0.56302  0.60182  0.85030  Biso   1.000  O
  O578     1.0000 0.56302  0.06302  0.81710  Biso   1.000  O
  O579     1.0000 0.10182  0.06302  0.85030  Biso   1.000  O
  O580     1.0000 0.10182  0.60182  0.81710  Biso   1.000  O
  O581     1.0000 0.81582  0.60182  0.10310  Biso   1.000  O
  O582     1.0000 0.84902  0.60182  0.56430  Biso   1.000  O
  O583     1.0000 0.81582  0.06302  0.56430  Biso   1.000  O
  O584     1.0000 0.84902  0.06302  0.10310  Biso   1.000  O
  O585     1.0000 0.56302  0.34902  0.10310  Biso   1.000  O
  O586     1.0000 0.10182  0.31582  0.10310  Biso   1.000  O
  O587     1.0000 0.10182  0.34902  0.56430  Biso   1.000  O
  O588     1.0000 0.56302  0.31582  0.56430  Biso   1.000  O
  O589     1.0000 0.10182  0.34902  0.10310  Biso   1.000  O
  O590     1.0000 0.10182  0.31582  0.56430  Biso   1.000  O
  O591     1.0000 0.56302  0.34902  0.56430  Biso   1.000  O
  O592     1.0000 0.56302  0.31582  0.10310  Biso   1.000  O
  O593     1.0000 0.84902  0.60182  0.10310  Biso   1.000  O
  O594     1.0000 0.81582  0.06302  0.10310  Biso   1.000  O
  O595     1.0000 0.84902  0.06302  0.56430  Biso   1.000  O
  O596     1.0000 0.81582  0.60182  0.56430  Biso   1.000  O
  O597     1.0000 0.10182  0.60182  0.85030  Biso   1.000  O
  O598     1.0000 0.56302  0.60182  0.81710  Biso   1.000  O
  O599     1.0000 0.56302  0.06302  0.85030  Biso   1.000  O
  O600     1.0000 0.10182  0.06302  0.81710  Biso   1.000  O
  O601     1.0000 0.06302  0.60182  0.35030  Biso   1.000  O
  O602     1.0000 0.06302  0.06302  0.31710  Biso   1.000  O
  O603     1.0000 0.60182  0.06302  0.35030  Biso   1.000  O
  O604     1.0000 0.60182  0.60182  0.31710  Biso   1.000  O
  O605     1.0000 0.31582  0.60182  0.60310  Biso   1.000  O
  O606     1.0000 0.34902  0.60182  0.06430  Biso   1.000  O
  O607     1.0000 0.31582  0.06302  0.06430  Biso   1.000  O
  O608     1.0000 0.34902  0.06302  0.60310  Biso   1.000  O
  O609     1.0000 0.06302  0.34902  0.60310  Biso   1.000  O
  O610     1.0000 0.60182  0.31582  0.60310  Biso   1.000  O
  O611     1.0000 0.60182  0.34902  0.06430  Biso   1.000  O
  O612     1.0000 0.06302  0.31582  0.06430  Biso   1.000  O
  O613     1.0000 0.60182  0.34902  0.60310  Biso   1.000  O
  O614     1.0000 0.60182  0.31582  0.06430  Biso   1.000  O
  O615     1.0000 0.06302  0.34902  0.06430  Biso   1.000  O
  O616     1.0000 0.06302  0.31582  0.60310  Biso   1.000  O
  O617     1.0000 0.34902  0.60182  0.60310  Biso   1.000  O
  O618     1.0000 0.31582  0.06302  0.60310  Biso   1.000  O
  O619     1.0000 0.34902  0.06302  0.06430  Biso   1.000  O
  O620     1.0000 0.31582  0.60182  0.06430  Biso   1.000  O
  O621     1.0000 0.60182  0.60182  0.35030  Biso   1.000  O
  O622     1.0000 0.06302  0.60182  0.31710  Biso   1.000  O
  O623     1.0000 0.06302  0.06302  0.35030  Biso   1.000  O
  O624     1.0000 0.60182  0.06302  0.31710  Biso   1.000  O
  O625     1.0000 0.06302  0.10182  0.85030  Biso   1.000  O
  O626     1.0000 0.06302  0.56302  0.81710  Biso   1.000  O
  O627     1.0000 0.60182  0.56302  0.85030  Biso   1.000  O
  O628     1.0000 0.60182  0.10182  0.81710  Biso   1.000  O
  O629     1.0000 0.31582  0.10182  0.10310  Biso   1.000  O
  O630     1.0000 0.34902  0.10182  0.56430  Biso   1.000  O
  O631     1.0000 0.31582  0.56302  0.56430  Biso   1.000  O
  O632     1.0000 0.34902  0.56302  0.10310  Biso   1.000  O
  O633     1.0000 0.06302  0.84902  0.10310  Biso   1.000  O
  O634     1.0000 0.60182  0.81582  0.10310  Biso   1.000  O
  O635     1.0000 0.60182  0.84902  0.56430  Biso   1.000  O
  O636     1.0000 0.06302  0.81582  0.56430  Biso   1.000  O
  O637     1.0000 0.60182  0.84902  0.10310  Biso   1.000  O
  O638     1.0000 0.60182  0.81582  0.56430  Biso   1.000  O
  O639     1.0000 0.06302  0.84902  0.56430  Biso   1.000  O
  O640     1.0000 0.06302  0.81582  0.10310  Biso   1.000  O
  O641     1.0000 0.34902  0.10182  0.10310  Biso   1.000  O
  O642     1.0000 0.31582  0.56302  0.10310  Biso   1.000  O
  O643     1.0000 0.34902  0.56302  0.56430  Biso   1.000  O
  O644     1.0000 0.31582  0.10182  0.56430  Biso   1.000  O
  O645     1.0000 0.60182  0.10182  0.85030  Biso   1.000  O
  O646     1.0000 0.06302  0.10182  0.81710  Biso   1.000  O
  O647     1.0000 0.06302  0.56302  0.85030  Biso   1.000  O
  O648     1.0000 0.60182  0.56302  0.81710  Biso   1.000  O
  O649     1.0000 0.56302  0.10182  0.35030  Biso   1.000  O
  O650     1.0000 0.56302  0.56302  0.31710  Biso   1.000  O
  O651     1.0000 0.10182  0.56302  0.35030  Biso   1.000  O
  O652     1.0000 0.10182  0.10182  0.31710  Biso   1.000  O
  O653     1.0000 0.81582  0.10182  0.60310  Biso   1.000  O
  O654     1.0000 0.84902  0.10182  0.06430  Biso   1.000  O
  O655     1.0000 0.81582  0.56302  0.06430  Biso   1.000  O
  O656     1.0000 0.84902  0.56302  0.60310  Biso   1.000  O
  O657     1.0000 0.56302  0.84902  0.60310  Biso   1.000  O
  O658     1.0000 0.10182  0.81582  0.60310  Biso   1.000  O
  O659     1.0000 0.10182  0.84902  0.06430  Biso   1.000  O
  O660     1.0000 0.56302  0.81582  0.06430  Biso   1.000  O
  O661     1.0000 0.10182  0.84902  0.60310  Biso   1.000  O
  O662     1.0000 0.10182  0.81582  0.06430  Biso   1.000  O
  O663     1.0000 0.56302  0.84902  0.06430  Biso   1.000  O
  O664     1.0000 0.56302  0.81582  0.60310  Biso   1.000  O
  O665     1.0000 0.84902  0.10182  0.60310  Biso   1.000  O
  O666     1.0000 0.81582  0.56302  0.60310  Biso   1.000  O
  O667     1.0000 0.84902  0.56302  0.06430  Biso   1.000  O
  O668     1.0000 0.81582  0.10182  0.06430  Biso   1.000  O
  O669     1.0000 0.10182  0.10182  0.35030  Biso   1.000  O
  O670     1.0000 0.56302  0.10182  0.31710  Biso   1.000  O
  O671     1.0000 0.56302  0.56302  0.35030  Biso   1.000  O
  O672     1.0000 0.10182  0.56302  0.31710  Biso   1.000  O
  O673     1.0000 0.52442  0.64042  0.83370  Biso   1.000  O
  O674     1.0000 0.52442  0.02442  0.83370  Biso   1.000  O
  O675     1.0000 0.14042  0.02442  0.83370  Biso   1.000  O
  O676     1.0000 0.14042  0.64042  0.83370  Biso   1.000  O
  O677     1.0000 0.83242  0.64042  0.14170  Biso   1.000  O
  O678     1.0000 0.83242  0.64042  0.52570  Biso   1.000  O
  O679     1.0000 0.83242  0.02442  0.52570  Biso   1.000  O
  O680     1.0000 0.83242  0.02442  0.14170  Biso   1.000  O
  O681     1.0000 0.52442  0.33242  0.14170  Biso   1.000  O
  O682     1.0000 0.14042  0.33242  0.14170  Biso   1.000  O
  O683     1.0000 0.14042  0.33242  0.52570  Biso   1.000  O
  O684     1.0000 0.52442  0.33242  0.52570  Biso   1.000  O
  O685     1.0000 0.02442  0.64042  0.33370  Biso   1.000  O
  O686     1.0000 0.02442  0.02442  0.33370  Biso   1.000  O
  O687     1.0000 0.64042  0.02442  0.33370  Biso   1.000  O
  O688     1.0000 0.64042  0.64042  0.33370  Biso   1.000  O
  O689     1.0000 0.33242  0.64042  0.64170  Biso   1.000  O
  O690     1.0000 0.33242  0.64042  0.02570  Biso   1.000  O
  O691     1.0000 0.33242  0.02442  0.02570  Biso   1.000  O
  O692     1.0000 0.33242  0.02442  0.64170  Biso   1.000  O
  O693     1.0000 0.02442  0.33242  0.64170  Biso   1.000  O
  O694     1.0000 0.64042  0.33242  0.64170  Biso   1.000  O
  O695     1.0000 0.64042  0.33242  0.02570  Biso   1.000  O
  O696     1.0000 0.02442  0.33242  0.02570  Biso   1.000  O
  O697     1.0000 0.02442  0.14042  0.83370  Biso   1.000  O
  O698     1.0000 0.02442  0.52442  0.83370  Biso   1.000  O
  O699     1.0000 0.64042  0.52442  0.83370  Biso   1.000  O
  O700     1.0000 0.64042  0.14042  0.83370  Biso   1.000  O
  O701     1.0000 0.33242  0.14042  0.14170  Biso   1.000  O
  O702     1.0000 0.33242  0.14042  0.52570  Biso   1.000  O
  O703     1.0000 0.33242  0.52442  0.52570  Biso   1.000  O
  O704     1.0000 0.33242  0.52442  0.14170  Biso   1.000  O
  O705     1.0000 0.02442  0.83242  0.14170  Biso   1.000  O
  O706     1.0000 0.64042  0.83242  0.14170  Biso   1.000  O
  O707     1.0000 0.64042  0.83242  0.52570  Biso   1.000  O
  O708     1.0000 0.02442  0.83242  0.52570  Biso   1.000  O
  O709     1.0000 0.52442  0.14042  0.33370  Biso   1.000  O
  O710     1.0000 0.52442  0.52442  0.33370  Biso   1.000  O
  O711     1.0000 0.14042  0.52442  0.33370  Biso   1.000  O
  O712     1.0000 0.14042  0.14042  0.33370  Biso   1.000  O
  O713     1.0000 0.83242  0.14042  0.64170  Biso   1.000  O
  O714     1.0000 0.83242  0.14042  0.02570  Biso   1.000  O
  O715     1.0000 0.83242  0.52442  0.02570  Biso   1.000  O
  O716     1.0000 0.83242  0.52442  0.64170  Biso   1.000  O
  O717     1.0000 0.52442  0.83242  0.64170  Biso   1.000  O
  O718     1.0000 0.14042  0.83242  0.64170  Biso   1.000  O
  O719     1.0000 0.14042  0.83242  0.02570  Biso   1.000  O
  O720     1.0000 0.52442  0.83242  0.02570  Biso   1.000  O
  O721     1.0000 0.50862  0.65622  0.83370  Biso   1.000  O
  O722     1.0000 0.50862  0.00862  0.83370  Biso   1.000  O
  O723     1.0000 0.15622  0.00862  0.83370  Biso   1.000  O
  O724     1.0000 0.15622  0.65622  0.83370  Biso   1.000  O
  O725     1.0000 0.83242  0.65622  0.15750  Biso   1.000  O
  O726     1.0000 0.83242  0.65622  0.50990  Biso   1.000  O
  O727     1.0000 0.83242  0.00862  0.50990  Biso   1.000  O
  O728     1.0000 0.83242  0.00862  0.15750  Biso   1.000  O
  O729     1.0000 0.50862  0.33242  0.15750  Biso   1.000  O
  O730     1.0000 0.15622  0.33242  0.15750  Biso   1.000  O
  O731     1.0000 0.15622  0.33242  0.50990  Biso   1.000  O
  O732     1.0000 0.50862  0.33242  0.50990  Biso   1.000  O
  O733     1.0000 0.00862  0.65622  0.33370  Biso   1.000  O
  O734     1.0000 0.00862  0.00862  0.33370  Biso   1.000  O
  O735     1.0000 0.65622  0.00862  0.33370  Biso   1.000  O
  O736     1.0000 0.65622  0.65622  0.33370  Biso   1.000  O
  O737     1.0000 0.33242  0.65622  0.65750  Biso   1.000  O
  O738     1.0000 0.33242  0.65622  0.00990  Biso   1.000  O
  O739     1.0000 0.33242  0.00862  0.00990  Biso   1.000  O
  O740     1.0000 0.33242  0.00862  0.65750  Biso   1.000  O
  O741     1.0000 0.00862  0.33242  0.65750  Biso   1.000  O
  O742     1.0000 0.65622  0.33242  0.65750  Biso   1.000  O
  O743     1.0000 0.65622  0.33242  0.00990  Biso   1.000  O
  O744     1.0000 0.00862  0.33242  0.00990  Biso   1.000  O
  O745     1.0000 0.00862  0.15622  0.83370  Biso   1.000  O
  O746     1.0000 0.00862  0.50862  0.83370  Biso   1.000  O
  O747     1.0000 0.65622  0.50862  0.83370  Biso   1.000  O
  O748     1.0000 0.65622  0.15622  0.83370  Biso   1.000  O
  O749     1.0000 0.33242  0.15622  0.15750  Biso   1.000  O
  O750     1.0000 0.33242  0.15622  0.50990  Biso   1.000  O
  O751     1.0000 0.33242  0.50862  0.50990  Biso   1.000  O
  O752     1.0000 0.33242  0.50862  0.15750  Biso   1.000  O
  O753     1.0000 0.00862  0.83242  0.15750  Biso   1.000  O
  O754     1.0000 0.65622  0.83242  0.15750  Biso   1.000  O
  O755     1.0000 0.65622  0.83242  0.50990  Biso   1.000  O
  O756     1.0000 0.00862  0.83242  0.50990  Biso   1.000  O
  O757     1.0000 0.50862  0.15622  0.33370  Biso   1.000  O
  O758     1.0000 0.50862  0.50862  0.33370  Biso   1.000  O
  O759     1.0000 0.15622  0.50862  0.33370  Biso   1.000  O
  O760     1.0000 0.15622  0.15622  0.33370  Biso   1.000  O
  O761     1.0000 0.83242  0.15622  0.65750  Biso   1.000  O
  O762     1.0000 0.83242  0.15622  0.00990  Biso   1.000  O
  O763     1.0000 0.83242  0.50862  0.00990  Biso   1.000  O
  O764     1.0000 0.83242  0.50862  0.65750  Biso   1.000  O
  O765     1.0000 0.50862  0.83242  0.65750  Biso   1.000  O
  O766     1.0000 0.15622  0.83242  0.65750  Biso   1.000  O
  O767     1.0000 0.15622  0.83242  0.00990  Biso   1.000  O
  O768     1.0000 0.50862  0.83242  0.00990  Biso   1.000  O
  O769     1.0000 0.52522  0.63962  0.89090  Biso   1.000  O
  O770     1.0000 0.52522  0.02522  0.77650  Biso   1.000  O
  O771     1.0000 0.13962  0.02522  0.89090  Biso   1.000  O
  O772     1.0000 0.13962  0.63962  0.77650  Biso   1.000  O
  O773     1.0000 0.77522  0.63962  0.14090  Biso   1.000  O
  O774     1.0000 0.88962  0.63962  0.52650  Biso   1.000  O
  O775     1.0000 0.77522  0.02522  0.52650  Biso   1.000  O
  O776     1.0000 0.88962  0.02522  0.14090  Biso   1.000  O
  O777     1.0000 0.52522  0.38962  0.14090  Biso   1.000  O
  O778     1.0000 0.13962  0.27522  0.14090  Biso   1.000  O
  O779     1.0000 0.13962  0.38962  0.52650  Biso   1.000  O
  O780     1.0000 0.52522  0.27522  0.52650  Biso   1.000  O
  O781     1.0000 0.13962  0.38962  0.14090  Biso   1.000  O
  O782     1.0000 0.13962  0.27522  0.52650  Biso   1.000  O
  O783     1.0000 0.52522  0.38962  0.52650  Biso   1.000  O
  O784     1.0000 0.52522  0.27522  0.14090  Biso   1.000  O
  O785     1.0000 0.88962  0.63962  0.14090  Biso   1.000  O
  O786     1.0000 0.77522  0.02522  0.14090  Biso   1.000  O
  O787     1.0000 0.88962  0.02522  0.52650  Biso   1.000  O
  O788     1.0000 0.77522  0.63962  0.52650  Biso   1.000  O
  O789     1.0000 0.13962  0.63962  0.89090  Biso   1.000  O
  O790     1.0000 0.52522  0.63962  0.77650  Biso   1.000  O
  O791     1.0000 0.52522  0.02522  0.89090  Biso   1.000  O
  O792     1.0000 0.13962  0.02522  0.77650  Biso   1.000  O
  O793     1.0000 0.02522  0.63962  0.39090  Biso   1.000  O
  O794     1.0000 0.02522  0.02522  0.27650  Biso   1.000  O
  O795     1.0000 0.63962  0.02522  0.39090  Biso   1.000  O
  O796     1.0000 0.63962  0.63962  0.27650  Biso   1.000  O
  O797     1.0000 0.27522  0.63962  0.64090  Biso   1.000  O
  O798     1.0000 0.38962  0.63962  0.02650  Biso   1.000  O
  O799     1.0000 0.27522  0.02522  0.02650  Biso   1.000  O
  O800     1.0000 0.38962  0.02522  0.64090  Biso   1.000  O
  O801     1.0000 0.02522  0.38962  0.64090  Biso   1.000  O
  O802     1.0000 0.63962  0.27522  0.64090  Biso   1.000  O
  O803     1.0000 0.63962  0.38962  0.02650  Biso   1.000  O
  O804     1.0000 0.02522  0.27522  0.02650  Biso   1.000  O
  O805     1.0000 0.63962  0.38962  0.64090  Biso   1.000  O
  O806     1.0000 0.63962  0.27522  0.02650  Biso   1.000  O
  O807     1.0000 0.02522  0.38962  0.02650  Biso   1.000  O
  O808     1.0000 0.02522  0.27522  0.64090  Biso   1.000  O
  O809     1.0000 0.38962  0.63962  0.64090  Biso   1.000  O
  O810     1.0000 0.27522  0.02522  0.64090  Biso   1.000  O
  O811     1.0000 0.38962  0.02522  0.02650  Biso   1.000  O
  O812     1.0000 0.27522  0.63962  0.02650  Biso   1.000  O
  O813     1.0000 0.63962  0.63962  0.39090  Biso   1.000  O
  O814     1.0000 0.02522  0.63962  0.27650  Biso   1.000  O
  O815     1.0000 0.02522  0.02522  0.39090  Biso   1.000  O
  O816     1.0000 0.63962  0.02522  0.27650  Biso   1.000  O
  O817     1.0000 0.02522  0.13962  0.89090  Biso   1.000  O
  O818     1.0000 0.02522  0.52522  0.77650  Biso   1.000  O
  O819     1.0000 0.63962  0.52522  0.89090  Biso   1.000  O
  O820     1.0000 0.63962  0.13962  0.77650  Biso   1.000  O
  O821     1.0000 0.27522  0.13962  0.14090  Biso   1.000  O
  O822     1.0000 0.38962  0.13962  0.52650  Biso   1.000  O
  O823     1.0000 0.27522  0.52522  0.52650  Biso   1.000  O
  O824     1.0000 0.38962  0.52522  0.14090  Biso   1.000  O
  O825     1.0000 0.02522  0.88962  0.14090  Biso   1.000  O
  O826     1.0000 0.63962  0.77522  0.14090  Biso   1.000  O
  O827     1.0000 0.63962  0.88962  0.52650  Biso   1.000  O
  O828     1.0000 0.02522  0.77522  0.52650  Biso   1.000  O
  O829     1.0000 0.63962  0.88962  0.14090  Biso   1.000  O
  O830     1.0000 0.63962  0.77522  0.52650  Biso   1.000  O
  O831     1.0000 0.02522  0.88962  0.52650  Biso   1.000  O
  O832     1.0000 0.02522  0.77522  0.14090  Biso   1.000  O
  O833     1.0000 0.38962  0.13962  0.14090  Biso   1.000  O
  O834     1.0000 0.27522  0.52522  0.14090  Biso   1.000  O
  O835     1.0000 0.38962  0.52522  0.52650  Biso   1.000  O
  O836     1.0000 0.27522  0.13962  0.52650  Biso   1.000  O
  O837     1.0000 0.63962  0.13962  0.89090  Biso   1.000  O
  O838     1.0000 0.02522  0.13962  0.77650  Biso   1.000  O
  O839     1.0000 0.02522  0.52522  0.89090  Biso   1.000  O
  O840     1.0000 0.63962  0.52522  0.77650  Biso   1.000  O
  O841     1.0000 0.52522  0.13962  0.39090  Biso   1.000  O
  O842     1.0000 0.52522  0.52522  0.27650  Biso   1.000  O
  O843     1.0000 0.13962  0.52522  0.39090  Biso   1.000  O
  O844     1.0000 0.13962  0.13962  0.27650  Biso   1.000  O
  O845     1.0000 0.77522  0.13962  0.64090  Biso   1.000  O
  O846     1.0000 0.88962  0.13962  0.02650  Biso   1.000  O
  O847     1.0000 0.77522  0.52522  0.02650  Biso   1.000  O
  O848     1.0000 0.88962  0.52522  0.64090  Biso   1.000  O
  O849     1.0000 0.52522  0.88962  0.64090  Biso   1.000  O
  O850     1.0000 0.13962  0.77522  0.64090  Biso   1.000  O
  O851     1.0000 0.13962  0.88962  0.02650  Biso   1.000  O
  O852     1.0000 0.52522  0.77522  0.02650  Biso   1.000  O
  O853     1.0000 0.13962  0.88962  0.64090  Biso   1.000  O
  O854     1.0000 0.13962  0.77522  0.02650  Biso   1.000  O
  O855     1.0000 0.52522  0.88962  0.02650  Biso   1.000  O
  O856     1.0000 0.52522  0.77522  0.64090  Biso   1.000  O
  O857     1.0000 0.88962  0.13962  0.64090  Biso   1.000  O
  O858     1.0000 0.77522  0.52522  0.64090  Biso   1.000  O
  O859     1.0000 0.88962  0.52522  0.02650  Biso   1.000  O
  O860     1.0000 0.77522  0.13962  0.02650  Biso   1.000  O
  O861     1.0000 0.13962  0.13962  0.39090  Biso   1.000  O
  O862     1.0000 0.52522  0.13962  0.27650  Biso   1.000  O
  O863     1.0000 0.52522  0.52522  0.39090  Biso   1.000  O
  O864     1.0000 0.13962  0.52522  0.27650  Biso   1.000  O
  O865     1.0000 0.50332  0.63502  0.89180  Biso   1.000  O
  O866     1.0000 0.50332  0.02982  0.77560  Biso   1.000  O
  O867     1.0000 0.16152  0.02982  0.89180  Biso   1.000  O
  O868     1.0000 0.16152  0.63502  0.77560  Biso   1.000  O
  O869     1.0000 0.77432  0.66152  0.13630  Biso   1.000  O
  O870     1.0000 0.89052  0.66152  0.53110  Biso   1.000  O
  O871     1.0000 0.77432  0.00332  0.53110  Biso   1.000  O
  O872     1.0000 0.89052  0.00332  0.13630  Biso   1.000  O
  O873     1.0000 0.52982  0.39052  0.16280  Biso   1.000  O
  O874     1.0000 0.13502  0.27432  0.16280  Biso   1.000  O
  O875     1.0000 0.13502  0.39052  0.50460  Biso   1.000  O
  O876     1.0000 0.52982  0.27432  0.50460  Biso   1.000  O
  O877     1.0000 0.16152  0.39052  0.13630  Biso   1.000  O
  O878     1.0000 0.16152  0.27432  0.53110  Biso   1.000  O
  O879     1.0000 0.50332  0.39052  0.53110  Biso   1.000  O
  O880     1.0000 0.50332  0.27432  0.13630  Biso   1.000  O
  O881     1.0000 0.89052  0.63502  0.16280  Biso   1.000  O
  O882     1.0000 0.77432  0.02982  0.16280  Biso   1.000  O
  O883     1.0000 0.89052  0.02982  0.50460  Biso   1.000  O
  O884     1.0000 0.77432  0.63502  0.50460  Biso   1.000  O
  O885     1.0000 0.13502  0.66152  0.89180  Biso   1.000  O
  O886     1.0000 0.52982  0.66152  0.77560  Biso   1.000  O
  O887     1.0000 0.52982  0.00332  0.89180  Biso   1.000  O
  O888     1.0000 0.13502  0.00332  0.77560  Biso   1.000  O
  O889     1.0000 0.00332  0.63502  0.39180  Biso   1.000  O
  O890     1.0000 0.00332  0.02982  0.27560  Biso   1.000  O
  O891     1.0000 0.66152  0.02982  0.39180  Biso   1.000  O
  O892     1.0000 0.66152  0.63502  0.27560  Biso   1.000  O
  O893     1.0000 0.27432  0.66152  0.63630  Biso   1.000  O
  O894     1.0000 0.39052  0.66152  0.03110  Biso   1.000  O
  O895     1.0000 0.27432  0.00332  0.03110  Biso   1.000  O
  O896     1.0000 0.39052  0.00332  0.63630  Biso   1.000  O
  O897     1.0000 0.02982  0.39052  0.66280  Biso   1.000  O
  O898     1.0000 0.63502  0.27432  0.66280  Biso   1.000  O
  O899     1.0000 0.63502  0.39052  0.00460  Biso   1.000  O
  O900     1.0000 0.02982  0.27432  0.00460  Biso   1.000  O
  O901     1.0000 0.66152  0.39052  0.63630  Biso   1.000  O
  O902     1.0000 0.66152  0.27432  0.03110  Biso   1.000  O
  O903     1.0000 0.00332  0.39052  0.03110  Biso   1.000  O
  O904     1.0000 0.00332  0.27432  0.63630  Biso   1.000  O
  O905     1.0000 0.39052  0.63502  0.66280  Biso   1.000  O
  O906     1.0000 0.27432  0.02982  0.66280  Biso   1.000  O
  O907     1.0000 0.39052  0.02982  0.00460  Biso   1.000  O
  O908     1.0000 0.27432  0.63502  0.00460  Biso   1.000  O
  O909     1.0000 0.63502  0.66152  0.39180  Biso   1.000  O
  O910     1.0000 0.02982  0.66152  0.27560  Biso   1.000  O
  O911     1.0000 0.02982  0.00332  0.39180  Biso   1.000  O
  O912     1.0000 0.63502  0.00332  0.27560  Biso   1.000  O
  O913     1.0000 0.00332  0.13502  0.89180  Biso   1.000  O
  O914     1.0000 0.00332  0.52982  0.77560  Biso   1.000  O
  O915     1.0000 0.66152  0.52982  0.89180  Biso   1.000  O
  O916     1.0000 0.66152  0.13502  0.77560  Biso   1.000  O
  O917     1.0000 0.27432  0.16152  0.13630  Biso   1.000  O
  O918     1.0000 0.39052  0.16152  0.53110  Biso   1.000  O
  O919     1.0000 0.27432  0.50332  0.53110  Biso   1.000  O
  O920     1.0000 0.39052  0.50332  0.13630  Biso   1.000  O
  O921     1.0000 0.02982  0.89052  0.16280  Biso   1.000  O
  O922     1.0000 0.63502  0.77432  0.16280  Biso   1.000  O
  O923     1.0000 0.63502  0.89052  0.50460  Biso   1.000  O
  O924     1.0000 0.02982  0.77432  0.50460  Biso   1.000  O
  O925     1.0000 0.66152  0.89052  0.13630  Biso   1.000  O
  O926     1.0000 0.66152  0.77432  0.53110  Biso   1.000  O
  O927     1.0000 0.00332  0.89052  0.53110  Biso   1.000  O
  O928     1.0000 0.00332  0.77432  0.13630  Biso   1.000  O
  O929     1.0000 0.39052  0.13502  0.16280  Biso   1.000  O
  O930     1.0000 0.27432  0.52982  0.16280  Biso   1.000  O
  O931     1.0000 0.39052  0.52982  0.50460  Biso   1.000  O
  O932     1.0000 0.27432  0.13502  0.50460  Biso   1.000  O
  O933     1.0000 0.63502  0.16152  0.89180  Biso   1.000  O
  O934     1.0000 0.02982  0.16152  0.77560  Biso   1.000  O
  O935     1.0000 0.02982  0.50332  0.89180  Biso   1.000  O
  O936     1.0000 0.63502  0.50332  0.77560  Biso   1.000  O
  O937     1.0000 0.50332  0.13502  0.39180  Biso   1.000  O
  O938     1.0000 0.50332  0.52982  0.27560  Biso   1.000  O
  O939     1.0000 0.16152  0.52982  0.39180  Biso   1.000  O
  O940     1.0000 0.16152  0.13502  0.27560  Biso   1.000  O
  O941     1.0000 0.77432  0.16152  0.63630  Biso   1.000  O
  O942     1.0000 0.89052  0.16152  0.03110  Biso   1.000  O
  O943     1.0000 0.77432  0.50332  0.03110  Biso   1.000  O
  O944     1.0000 0.89052  0.50332  0.63630  Biso   1.000  O
  O945     1.0000 0.52982  0.89052  0.66280  Biso   1.000  O
  O946     1.0000 0.13502  0.77432  0.66280  Biso   1.000  O
  O947     1.0000 0.13502  0.89052  0.00460  Biso   1.000  O
  O948     1.0000 0.52982  0.77432  0.00460  Biso   1.000  O
  O949     1.0000 0.16152  0.89052  0.63630  Biso   1.000  O
  O950     1.0000 0.16152  0.77432  0.03110  Biso   1.000  O
  O951     1.0000 0.50332  0.89052  0.03110  Biso   1.000  O
  O952     1.0000 0.50332  0.77432  0.63630  Biso   1.000  O
  O953     1.0000 0.89052  0.13502  0.66280  Biso   1.000  O
  O954     1.0000 0.77432  0.52982  0.66280  Biso   1.000  O
  O955     1.0000 0.89052  0.52982  0.00460  Biso   1.000  O
  O956     1.0000 0.77432  0.13502  0.00460  Biso   1.000  O
  O957     1.0000 0.13502  0.16152  0.39180  Biso   1.000  O
  O958     1.0000 0.52982  0.16152  0.27560  Biso   1.000  O
  O959     1.0000 0.52982  0.50332  0.39180  Biso   1.000  O
  O960     1.0000 0.13502  0.50332  0.27560  Biso   1.000  O
  O961     1.0000 0.16152  0.02982  0.77560  Biso   1.000  O
  O962     1.0000 0.16152  0.63502  0.89180  Biso   1.000  O
  O963     1.0000 0.50332  0.63502  0.77560  Biso   1.000  O
  O964     1.0000 0.50332  0.02982  0.89180  Biso   1.000  O
  O965     1.0000 0.89052  0.00332  0.53110  Biso   1.000  O
  O966     1.0000 0.77432  0.00332  0.13630  Biso   1.000  O
  O967     1.0000 0.89052  0.66152  0.13630  Biso   1.000  O
  O968     1.0000 0.77432  0.66152  0.53110  Biso   1.000  O
  O969     1.0000 0.13502  0.27432  0.50460  Biso   1.000  O
  O970     1.0000 0.52982  0.39052  0.50460  Biso   1.000  O
  O971     1.0000 0.52982  0.27432  0.16280  Biso   1.000  O
  O972     1.0000 0.13502  0.39052  0.16280  Biso   1.000  O
  O973     1.0000 0.50332  0.27432  0.53110  Biso   1.000  O
  O974     1.0000 0.50332  0.39052  0.13630  Biso   1.000  O
  O975     1.0000 0.16152  0.27432  0.13630  Biso   1.000  O
  O976     1.0000 0.16152  0.39052  0.53110  Biso   1.000  O
  O977     1.0000 0.77432  0.02982  0.50460  Biso   1.000  O
  O978     1.0000 0.89052  0.63502  0.50460  Biso   1.000  O
  O979     1.0000 0.77432  0.63502  0.16280  Biso   1.000  O
  O980     1.0000 0.89052  0.02982  0.16280  Biso   1.000  O
  O981     1.0000 0.52982  0.00332  0.77560  Biso   1.000  O
  O982     1.0000 0.13502  0.00332  0.89180  Biso   1.000  O
  O983     1.0000 0.13502  0.66152  0.77560  Biso   1.000  O
  O984     1.0000 0.52982  0.66152  0.89180  Biso   1.000  O
  O985     1.0000 0.66152  0.02982  0.27560  Biso   1.000  O
  O986     1.0000 0.66152  0.63502  0.39180  Biso   1.000  O
  O987     1.0000 0.00332  0.63502  0.27560  Biso   1.000  O
  O988     1.0000 0.00332  0.02982  0.39180  Biso   1.000  O
  O989     1.0000 0.39052  0.00332  0.03110  Biso   1.000  O
  O990     1.0000 0.27432  0.00332  0.63630  Biso   1.000  O
  O991     1.0000 0.39052  0.66152  0.63630  Biso   1.000  O
  O992     1.0000 0.27432  0.66152  0.03110  Biso   1.000  O
  O993     1.0000 0.63502  0.27432  0.00460  Biso   1.000  O
  O994     1.0000 0.02982  0.39052  0.00460  Biso   1.000  O
  O995     1.0000 0.02982  0.27432  0.66280  Biso   1.000  O
  O996     1.0000 0.63502  0.39052  0.66280  Biso   1.000  O
  O997     1.0000 0.00332  0.27432  0.03110  Biso   1.000  O
  O998     1.0000 0.00332  0.39052  0.63630  Biso   1.000  O
  O999     1.0000 0.66152  0.27432  0.63630  Biso   1.000  O
  O1000    1.0000 0.66152  0.39052  0.03110  Biso   1.000  O
  O1001    1.0000 0.27432  0.02982  0.00460  Biso   1.000  O
  O1002    1.0000 0.39052  0.63502  0.00460  Biso   1.000  O
  O1003    1.0000 0.27432  0.63502  0.66280  Biso   1.000  O
  O1004    1.0000 0.39052  0.02982  0.66280  Biso   1.000  O
  O1005    1.0000 0.02982  0.00332  0.27560  Biso   1.000  O
  O1006    1.0000 0.63502  0.00332  0.39180  Biso   1.000  O
  O1007    1.0000 0.63502  0.66152  0.27560  Biso   1.000  O
  O1008    1.0000 0.02982  0.66152  0.39180  Biso   1.000  O
  O1009    1.0000 0.66152  0.52982  0.77560  Biso   1.000  O
  O1010    1.0000 0.66152  0.13502  0.89180  Biso   1.000  O
  O1011    1.0000 0.00332  0.13502  0.77560  Biso   1.000  O
  O1012    1.0000 0.00332  0.52982  0.89180  Biso   1.000  O
  O1013    1.0000 0.39052  0.50332  0.53110  Biso   1.000  O
  O1014    1.0000 0.27432  0.50332  0.13630  Biso   1.000  O
  O1015    1.0000 0.39052  0.16152  0.13630  Biso   1.000  O
  O1016    1.0000 0.27432  0.16152  0.53110  Biso   1.000  O
  O1017    1.0000 0.63502  0.77432  0.50460  Biso   1.000  O
  O1018    1.0000 0.02982  0.89052  0.50460  Biso   1.000  O
  O1019    1.0000 0.02982  0.77432  0.16280  Biso   1.000  O
  O1020    1.0000 0.63502  0.89052  0.16280  Biso   1.000  O
  O1021    1.0000 0.00332  0.77432  0.53110  Biso   1.000  O
  O1022    1.0000 0.00332  0.89052  0.13630  Biso   1.000  O
  O1023    1.0000 0.66152  0.77432  0.13630  Biso   1.000  O
  O1024    1.0000 0.66152  0.89052  0.53110  Biso   1.000  O
  O1025    1.0000 0.27432  0.52982  0.50460  Biso   1.000  O
  O1026    1.0000 0.39052  0.13502  0.50460  Biso   1.000  O
  O1027    1.0000 0.27432  0.13502  0.16280  Biso   1.000  O
  O1028    1.0000 0.39052  0.52982  0.16280  Biso   1.000  O
  O1029    1.0000 0.02982  0.50332  0.77560  Biso   1.000  O
  O1030    1.0000 0.63502  0.50332  0.89180  Biso   1.000  O
  O1031    1.0000 0.63502  0.16152  0.77560  Biso   1.000  O
  O1032    1.0000 0.02982  0.16152  0.89180  Biso   1.000  O
  O1033    1.0000 0.16152  0.52982  0.27560  Biso   1.000  O
  O1034    1.0000 0.16152  0.13502  0.39180  Biso   1.000  O
  O1035    1.0000 0.50332  0.13502  0.27560  Biso   1.000  O
  O1036    1.0000 0.50332  0.52982  0.39180  Biso   1.000  O
  O1037    1.0000 0.89052  0.50332  0.03110  Biso   1.000  O
  O1038    1.0000 0.77432  0.50332  0.63630  Biso   1.000  O
  O1039    1.0000 0.89052  0.16152  0.63630  Biso   1.000  O
  O1040    1.0000 0.77432  0.16152  0.03110  Biso   1.000  O
  O1041    1.0000 0.13502  0.77432  0.00460  Biso   1.000  O
  O1042    1.0000 0.52982  0.89052  0.00460  Biso   1.000  O
  O1043    1.0000 0.52982  0.77432  0.66280  Biso   1.000  O
  O1044    1.0000 0.13502  0.89052  0.66280  Biso   1.000  O
  O1045    1.0000 0.50332  0.77432  0.03110  Biso   1.000  O
  O1046    1.0000 0.50332  0.89052  0.63630  Biso   1.000  O
  O1047    1.0000 0.16152  0.77432  0.63630  Biso   1.000  O
  O1048    1.0000 0.16152  0.89052  0.03110  Biso   1.000  O
  O1049    1.0000 0.77432  0.52982  0.00460  Biso   1.000  O
  O1050    1.0000 0.89052  0.13502  0.00460  Biso   1.000  O
  O1051    1.0000 0.77432  0.13502  0.66280  Biso   1.000  O
  O1052    1.0000 0.89052  0.52982  0.66280  Biso   1.000  O
  O1053    1.0000 0.52982  0.50332  0.27560  Biso   1.000  O
  O1054    1.0000 0.13502  0.50332  0.39180  Biso   1.000  O
  O1055    1.0000 0.13502  0.16152  0.27560  Biso   1.000  O
  O1056    1.0000 0.52982  0.16152  0.39180  Biso   1.000  O
  O1057    1.0000 0.52832  0.66172  0.89100  Biso   1.000  O
  O1058    1.0000 0.52832  0.00312  0.77640  Biso   1.000  O
  O1059    1.0000 0.13652  0.00312  0.89100  Biso   1.000  O
  O1060    1.0000 0.13652  0.66172  0.77640  Biso   1.000  O
  O1061    1.0000 0.77512  0.63652  0.16300  Biso   1.000  O
  O1062    1.0000 0.88972  0.63652  0.50440  Biso   1.000  O
  O1063    1.0000 0.77512  0.02832  0.50440  Biso   1.000  O
  O1064    1.0000 0.88972  0.02832  0.16300  Biso   1.000  O
  O1065    1.0000 0.50312  0.38972  0.13780  Biso   1.000  O
  O1066    1.0000 0.16172  0.27512  0.13780  Biso   1.000  O
  O1067    1.0000 0.16172  0.38972  0.52960  Biso   1.000  O
  O1068    1.0000 0.50312  0.27512  0.52960  Biso   1.000  O
  O1069    1.0000 0.13652  0.38972  0.16300  Biso   1.000  O
  O1070    1.0000 0.13652  0.27512  0.50440  Biso   1.000  O
  O1071    1.0000 0.52832  0.38972  0.50440  Biso   1.000  O
  O1072    1.0000 0.52832  0.27512  0.16300  Biso   1.000  O
  O1073    1.0000 0.88972  0.66172  0.13780  Biso   1.000  O
  O1074    1.0000 0.77512  0.00312  0.13780  Biso   1.000  O
  O1075    1.0000 0.88972  0.00312  0.52960  Biso   1.000  O
  O1076    1.0000 0.77512  0.66172  0.52960  Biso   1.000  O
  O1077    1.0000 0.16172  0.63652  0.89100  Biso   1.000  O
  O1078    1.0000 0.50312  0.63652  0.77640  Biso   1.000  O
  O1079    1.0000 0.50312  0.02832  0.89100  Biso   1.000  O
  O1080    1.0000 0.16172  0.02832  0.77640  Biso   1.000  O
  O1081    1.0000 0.02832  0.66172  0.39100  Biso   1.000  O
  O1082    1.0000 0.02832  0.00312  0.27640  Biso   1.000  O
  O1083    1.0000 0.63652  0.00312  0.39100  Biso   1.000  O
  O1084    1.0000 0.63652  0.66172  0.27640  Biso   1.000  O
  O1085    1.0000 0.27512  0.63652  0.66300  Biso   1.000  O
  O1086    1.0000 0.38972  0.63652  0.00440  Biso   1.000  O
  O1087    1.0000 0.27512  0.02832  0.00440  Biso   1.000  O
  O1088    1.0000 0.38972  0.02832  0.66300  Biso   1.000  O
  O1089    1.0000 0.00312  0.38972  0.63780  Biso   1.000  O
  O1090    1.0000 0.66172  0.27512  0.63780  Biso   1.000  O
  O1091    1.0000 0.66172  0.38972  0.02960  Biso   1.000  O
  O1092    1.0000 0.00312  0.27512  0.02960  Biso   1.000  O
  O1093    1.0000 0.63652  0.38972  0.66300  Biso   1.000  O
  O1094    1.0000 0.63652  0.27512  0.00440  Biso   1.000  O
  O1095    1.0000 0.02832  0.38972  0.00440  Biso   1.000  O
  O1096    1.0000 0.02832  0.27512  0.66300  Biso   1.000  O
  O1097    1.0000 0.38972  0.66172  0.63780  Biso   1.000  O
  O1098    1.0000 0.27512  0.00312  0.63780  Biso   1.000  O
  O1099    1.0000 0.38972  0.00312  0.02960  Biso   1.000  O
  O1100    1.0000 0.27512  0.66172  0.02960  Biso   1.000  O
  O1101    1.0000 0.66172  0.63652  0.39100  Biso   1.000  O
  O1102    1.0000 0.00312  0.63652  0.27640  Biso   1.000  O
  O1103    1.0000 0.00312  0.02832  0.39100  Biso   1.000  O
  O1104    1.0000 0.66172  0.02832  0.27640  Biso   1.000  O
  O1105    1.0000 0.02832  0.16172  0.89100  Biso   1.000  O
  O1106    1.0000 0.02832  0.50312  0.77640  Biso   1.000  O
  O1107    1.0000 0.63652  0.50312  0.89100  Biso   1.000  O
  O1108    1.0000 0.63652  0.16172  0.77640  Biso   1.000  O
  O1109    1.0000 0.27512  0.13652  0.16300  Biso   1.000  O
  O1110    1.0000 0.38972  0.13652  0.50440  Biso   1.000  O
  O1111    1.0000 0.27512  0.52832  0.50440  Biso   1.000  O
  O1112    1.0000 0.38972  0.52832  0.16300  Biso   1.000  O
  O1113    1.0000 0.00312  0.88972  0.13780  Biso   1.000  O
  O1114    1.0000 0.66172  0.77512  0.13780  Biso   1.000  O
  O1115    1.0000 0.66172  0.88972  0.52960  Biso   1.000  O
  O1116    1.0000 0.00312  0.77512  0.52960  Biso   1.000  O
  O1117    1.0000 0.63652  0.88972  0.16300  Biso   1.000  O
  O1118    1.0000 0.63652  0.77512  0.50440  Biso   1.000  O
  O1119    1.0000 0.02832  0.88972  0.50440  Biso   1.000  O
  O1120    1.0000 0.02832  0.77512  0.16300  Biso   1.000  O
  O1121    1.0000 0.38972  0.16172  0.13780  Biso   1.000  O
  O1122    1.0000 0.27512  0.50312  0.13780  Biso   1.000  O
  O1123    1.0000 0.38972  0.50312  0.52960  Biso   1.000  O
  O1124    1.0000 0.27512  0.16172  0.52960  Biso   1.000  O
  O1125    1.0000 0.66172  0.13652  0.89100  Biso   1.000  O
  O1126    1.0000 0.00312  0.13652  0.77640  Biso   1.000  O
  O1127    1.0000 0.00312  0.52832  0.89100  Biso   1.000  O
  O1128    1.0000 0.66172  0.52832  0.77640  Biso   1.000  O
  O1129    1.0000 0.52832  0.16172  0.39100  Biso   1.000  O
  O1130    1.0000 0.52832  0.50312  0.27640  Biso   1.000  O
  O1131    1.0000 0.13652  0.50312  0.39100  Biso   1.000  O
  O1132    1.0000 0.13652  0.16172  0.27640  Biso   1.000  O
  O1133    1.0000 0.77512  0.13652  0.66300  Biso   1.000  O
  O1134    1.0000 0.88972  0.13652  0.00440  Biso   1.000  O
  O1135    1.0000 0.77512  0.52832  0.00440  Biso   1.000  O
  O1136    1.0000 0.88972  0.52832  0.66300  Biso   1.000  O
  O1137    1.0000 0.50312  0.88972  0.63780  Biso   1.000  O
  O1138    1.0000 0.16172  0.77512  0.63780  Biso   1.000  O
  O1139    1.0000 0.16172  0.88972  0.02960  Biso   1.000  O
  O1140    1.0000 0.50312  0.77512  0.02960  Biso   1.000  O
  O1141    1.0000 0.13652  0.88972  0.66300  Biso   1.000  O
  O1142    1.0000 0.13652  0.77512  0.00440  Biso   1.000  O
  O1143    1.0000 0.52832  0.88972  0.00440  Biso   1.000  O
  O1144    1.0000 0.52832  0.77512  0.66300  Biso   1.000  O
  O1145    1.0000 0.88972  0.16172  0.63780  Biso   1.000  O
  O1146    1.0000 0.77512  0.50312  0.63780  Biso   1.000  O
  O1147    1.0000 0.88972  0.50312  0.02960  Biso   1.000  O
  O1148    1.0000 0.77512  0.16172  0.02960  Biso   1.000  O
  O1149    1.0000 0.16172  0.13652  0.39100  Biso   1.000  O
  O1150    1.0000 0.50312  0.13652  0.27640  Biso   1.000  O
  O1151    1.0000 0.50312  0.52832  0.39100  Biso   1.000  O
  O1152    1.0000 0.16172  0.52832  0.27640  Biso   1.000  O
  O1153    1.0000 0.13652  0.00312  0.77640  Biso   1.000  O
  O1154    1.0000 0.13652  0.66172  0.89100  Biso   1.000  O
  O1155    1.0000 0.52832  0.66172  0.77640  Biso   1.000  O
  O1156    1.0000 0.52832  0.00312  0.89100  Biso   1.000  O
  O1157    1.0000 0.88972  0.02832  0.50440  Biso   1.000  O
  O1158    1.0000 0.77512  0.02832  0.16300  Biso   1.000  O
  O1159    1.0000 0.88972  0.63652  0.16300  Biso   1.000  O
  O1160    1.0000 0.77512  0.63652  0.50440  Biso   1.000  O
  O1161    1.0000 0.16172  0.27512  0.52960  Biso   1.000  O
  O1162    1.0000 0.50312  0.38972  0.52960  Biso   1.000  O
  O1163    1.0000 0.50312  0.27512  0.13780  Biso   1.000  O
  O1164    1.0000 0.16172  0.38972  0.13780  Biso   1.000  O
  O1165    1.0000 0.52832  0.27512  0.50440  Biso   1.000  O
  O1166    1.0000 0.52832  0.38972  0.16300  Biso   1.000  O
  O1167    1.0000 0.13652  0.27512  0.16300  Biso   1.000  O
  O1168    1.0000 0.13652  0.38972  0.50440  Biso   1.000  O
  O1169    1.0000 0.77512  0.00312  0.52960  Biso   1.000  O
  O1170    1.0000 0.88972  0.66172  0.52960  Biso   1.000  O
  O1171    1.0000 0.77512  0.66172  0.13780  Biso   1.000  O
  O1172    1.0000 0.88972  0.00312  0.13780  Biso   1.000  O
  O1173    1.0000 0.50312  0.02832  0.77640  Biso   1.000  O
  O1174    1.0000 0.16172  0.02832  0.89100  Biso   1.000  O
  O1175    1.0000 0.16172  0.63652  0.77640  Biso   1.000  O
  O1176    1.0000 0.50312  0.63652  0.89100  Biso   1.000  O
  O1177    1.0000 0.63652  0.00312  0.27640  Biso   1.000  O
  O1178    1.0000 0.63652  0.66172  0.39100  Biso   1.000  O
  O1179    1.0000 0.02832  0.66172  0.27640  Biso   1.000  O
  O1180    1.0000 0.02832  0.00312  0.39100  Biso   1.000  O
  O1181    1.0000 0.38972  0.02832  0.00440  Biso   1.000  O
  O1182    1.0000 0.27512  0.02832  0.66300  Biso   1.000  O
  O1183    1.0000 0.38972  0.63652  0.66300  Biso   1.000  O
  O1184    1.0000 0.27512  0.63652  0.00440  Biso   1.000  O
  O1185    1.0000 0.66172  0.27512  0.02960  Biso   1.000  O
  O1186    1.0000 0.00312  0.38972  0.02960  Biso   1.000  O
  O1187    1.0000 0.00312  0.27512  0.63780  Biso   1.000  O
  O1188    1.0000 0.66172  0.38972  0.63780  Biso   1.000  O
  O1189    1.0000 0.02832  0.27512  0.00440  Biso   1.000  O
  O1190    1.0000 0.02832  0.38972  0.66300  Biso   1.000  O
  O1191    1.0000 0.63652  0.27512  0.66300  Biso   1.000  O
  O1192    1.0000 0.63652  0.38972  0.00440  Biso   1.000  O
  O1193    1.0000 0.27512  0.00312  0.02960  Biso   1.000  O
  O1194    1.0000 0.38972  0.66172  0.02960  Biso   1.000  O
  O1195    1.0000 0.27512  0.66172  0.63780  Biso   1.000  O
  O1196    1.0000 0.38972  0.00312  0.63780  Biso   1.000  O
  O1197    1.0000 0.00312  0.02832  0.27640  Biso   1.000  O
  O1198    1.0000 0.66172  0.02832  0.39100  Biso   1.000  O
  O1199    1.0000 0.66172  0.63652  0.27640  Biso   1.000  O
  O1200    1.0000 0.00312  0.63652  0.39100  Biso   1.000  O
  O1201    1.0000 0.63652  0.50312  0.77640  Biso   1.000  O
  O1202    1.0000 0.63652  0.16172  0.89100  Biso   1.000  O
  O1203    1.0000 0.02832  0.16172  0.77640  Biso   1.000  O
  O1204    1.0000 0.02832  0.50312  0.89100  Biso   1.000  O
  O1205    1.0000 0.38972  0.52832  0.50440  Biso   1.000  O
  O1206    1.0000 0.27512  0.52832  0.16300  Biso   1.000  O
  O1207    1.0000 0.38972  0.13652  0.16300  Biso   1.000  O
  O1208    1.0000 0.27512  0.13652  0.50440  Biso   1.000  O
  O1209    1.0000 0.66172  0.77512  0.52960  Biso   1.000  O
  O1210    1.0000 0.00312  0.88972  0.52960  Biso   1.000  O
  O1211    1.0000 0.00312  0.77512  0.13780  Biso   1.000  O
  O1212    1.0000 0.66172  0.88972  0.13780  Biso   1.000  O
  O1213    1.0000 0.02832  0.77512  0.50440  Biso   1.000  O
  O1214    1.0000 0.02832  0.88972  0.16300  Biso   1.000  O
  O1215    1.0000 0.63652  0.77512  0.16300  Biso   1.000  O
  O1216    1.0000 0.63652  0.88972  0.50440  Biso   1.000  O
  O1217    1.0000 0.27512  0.50312  0.52960  Biso   1.000  O
  O1218    1.0000 0.38972  0.16172  0.52960  Biso   1.000  O
  O1219    1.0000 0.27512  0.16172  0.13780  Biso   1.000  O
  O1220    1.0000 0.38972  0.50312  0.13780  Biso   1.000  O
  O1221    1.0000 0.00312  0.52832  0.77640  Biso   1.000  O
  O1222    1.0000 0.66172  0.52832  0.89100  Biso   1.000  O
  O1223    1.0000 0.66172  0.13652  0.77640  Biso   1.000  O
  O1224    1.0000 0.00312  0.13652  0.89100  Biso   1.000  O
  O1225    1.0000 0.13652  0.50312  0.27640  Biso   1.000  O
  O1226    1.0000 0.13652  0.16172  0.39100  Biso   1.000  O
  O1227    1.0000 0.52832  0.16172  0.27640  Biso   1.000  O
  O1228    1.0000 0.52832  0.50312  0.39100  Biso   1.000  O
  O1229    1.0000 0.88972  0.52832  0.00440  Biso   1.000  O
  O1230    1.0000 0.77512  0.52832  0.66300  Biso   1.000  O
  O1231    1.0000 0.88972  0.13652  0.66300  Biso   1.000  O
  O1232    1.0000 0.77512  0.13652  0.00440  Biso   1.000  O
  O1233    1.0000 0.16172  0.77512  0.02960  Biso   1.000  O
  O1234    1.0000 0.50312  0.88972  0.02960  Biso   1.000  O
  O1235    1.0000 0.50312  0.77512  0.63780  Biso   1.000  O
  O1236    1.0000 0.16172  0.88972  0.63780  Biso   1.000  O
  O1237    1.0000 0.52832  0.77512  0.00440  Biso   1.000  O
  O1238    1.0000 0.52832  0.88972  0.66300  Biso   1.000  O
  O1239    1.0000 0.13652  0.77512  0.66300  Biso   1.000  O
  O1240    1.0000 0.13652  0.88972  0.00440  Biso   1.000  O
  O1241    1.0000 0.77512  0.50312  0.02960  Biso   1.000  O
  O1242    1.0000 0.88972  0.16172  0.02960  Biso   1.000  O
  O1243    1.0000 0.77512  0.16172  0.63780  Biso   1.000  O
  O1244    1.0000 0.88972  0.50312  0.63780  Biso   1.000  O
  O1245    1.0000 0.50312  0.52832  0.27640  Biso   1.000  O
  O1246    1.0000 0.16172  0.52832  0.39100  Biso   1.000  O
  O1247    1.0000 0.16172  0.13652  0.27640  Biso   1.000  O
  O1248    1.0000 0.50312  0.13652  0.39100  Biso   1.000  O
  O1249    1.0000 0.53542  0.63062  0.90860  Biso   1.000  O
  O1250    1.0000 0.53542  0.03422  0.75880  Biso   1.000  O
  O1251    1.0000 0.12942  0.03422  0.90860  Biso   1.000  O
  O1252    1.0000 0.12942  0.63062  0.75880  Biso   1.000  O
  O1253    1.0000 0.75752  0.62942  0.13190  Biso   1.000  O
  O1254    1.0000 0.90732  0.62942  0.53550  Biso   1.000  O
  O1255    1.0000 0.75752  0.03542  0.53550  Biso   1.000  O
  O1256    1.0000 0.90732  0.03542  0.13190  Biso   1.000  O
  O1257    1.0000 0.53422  0.40732  0.13070  Biso   1.000  O
  O1258    1.0000 0.13062  0.25752  0.13070  Biso   1.000  O
  O1259    1.0000 0.13062  0.40732  0.53670  Biso   1.000  O
  O1260    1.0000 0.53422  0.25752  0.53670  Biso   1.000  O
  O1261    1.0000 0.12942  0.40732  0.13190  Biso   1.000  O
  O1262    1.0000 0.12942  0.25752  0.53550  Biso   1.000  O
  O1263    1.0000 0.53542  0.40732  0.53550  Biso   1.000  O
  O1264    1.0000 0.53542  0.25752  0.13190  Biso   1.000  O
  O1265    1.0000 0.90732  0.63062  0.13070  Biso   1.000  O
  O1266    1.0000 0.75752  0.03422  0.13070  Biso   1.000  O
  O1267    1.0000 0.90732  0.03422  0.53670  Biso   1.000  O
  O1268    1.0000 0.75752  0.63062  0.53670  Biso   1.000  O
  O1269    1.0000 0.13062  0.62942  0.90860  Biso   1.000  O
  O1270    1.0000 0.53422  0.62942  0.75880  Biso   1.000  O
  O1271    1.0000 0.53422  0.03542  0.90860  Biso   1.000  O
  O1272    1.0000 0.13062  0.03542  0.75880  Biso   1.000  O
  O1273    1.0000 0.03542  0.63062  0.40860  Biso   1.000  O
  O1274    1.0000 0.03542  0.03422  0.25880  Biso   1.000  O
  O1275    1.0000 0.62942  0.03422  0.40860  Biso   1.000  O
  O1276    1.0000 0.62942  0.63062  0.25880  Biso   1.000  O
  O1277    1.0000 0.25752  0.62942  0.63190  Biso   1.000  O
  O1278    1.0000 0.40732  0.62942  0.03550  Biso   1.000  O
  O1279    1.0000 0.25752  0.03542  0.03550  Biso   1.000  O
  O1280    1.0000 0.40732  0.03542  0.63190  Biso   1.000  O
  O1281    1.0000 0.03422  0.40732  0.63070  Biso   1.000  O
  O1282    1.0000 0.63062  0.25752  0.63070  Biso   1.000  O
  O1283    1.0000 0.63062  0.40732  0.03670  Biso   1.000  O
  O1284    1.0000 0.03422  0.25752  0.03670  Biso   1.000  O
  O1285    1.0000 0.62942  0.40732  0.63190  Biso   1.000  O
  O1286    1.0000 0.62942  0.25752  0.03550  Biso   1.000  O
  O1287    1.0000 0.03542  0.40732  0.03550  Biso   1.000  O
  O1288    1.0000 0.03542  0.25752  0.63190  Biso   1.000  O
  O1289    1.0000 0.40732  0.63062  0.63070  Biso   1.000  O
  O1290    1.0000 0.25752  0.03422  0.63070  Biso   1.000  O
  O1291    1.0000 0.40732  0.03422  0.03670  Biso   1.000  O
  O1292    1.0000 0.25752  0.63062  0.03670  Biso   1.000  O
  O1293    1.0000 0.63062  0.62942  0.40860  Biso   1.000  O
  O1294    1.0000 0.03422  0.62942  0.25880  Biso   1.000  O
  O1295    1.0000 0.03422  0.03542  0.40860  Biso   1.000  O
  O1296    1.0000 0.63062  0.03542  0.25880  Biso   1.000  O
  O1297    1.0000 0.03542  0.13062  0.90860  Biso   1.000  O
  O1298    1.0000 0.03542  0.53422  0.75880  Biso   1.000  O
  O1299    1.0000 0.62942  0.53422  0.90860  Biso   1.000  O
  O1300    1.0000 0.62942  0.13062  0.75880  Biso   1.000  O
  O1301    1.0000 0.25752  0.12942  0.13190  Biso   1.000  O
  O1302    1.0000 0.40732  0.12942  0.53550  Biso   1.000  O
  O1303    1.0000 0.25752  0.53542  0.53550  Biso   1.000  O
  O1304    1.0000 0.40732  0.53542  0.13190  Biso   1.000  O
  O1305    1.0000 0.03422  0.90732  0.13070  Biso   1.000  O
  O1306    1.0000 0.63062  0.75752  0.13070  Biso   1.000  O
  O1307    1.0000 0.63062  0.90732  0.53670  Biso   1.000  O
  O1308    1.0000 0.03422  0.75752  0.53670  Biso   1.000  O
  O1309    1.0000 0.62942  0.90732  0.13190  Biso   1.000  O
  O1310    1.0000 0.62942  0.75752  0.53550  Biso   1.000  O
  O1311    1.0000 0.03542  0.90732  0.53550  Biso   1.000  O
  O1312    1.0000 0.03542  0.75752  0.13190  Biso   1.000  O
  O1313    1.0000 0.40732  0.13062  0.13070  Biso   1.000  O
  O1314    1.0000 0.25752  0.53422  0.13070  Biso   1.000  O
  O1315    1.0000 0.40732  0.53422  0.53670  Biso   1.000  O
  O1316    1.0000 0.25752  0.13062  0.53670  Biso   1.000  O
  O1317    1.0000 0.63062  0.12942  0.90860  Biso   1.000  O
  O1318    1.0000 0.03422  0.12942  0.75880  Biso   1.000  O
  O1319    1.0000 0.03422  0.53542  0.90860  Biso   1.000  O
  O1320    1.0000 0.63062  0.53542  0.75880  Biso   1.000  O
  O1321    1.0000 0.53542  0.13062  0.40860  Biso   1.000  O
  O1322    1.0000 0.53542  0.53422  0.25880  Biso   1.000  O
  O1323    1.0000 0.12942  0.53422  0.40860  Biso   1.000  O
  O1324    1.0000 0.12942  0.13062  0.25880  Biso   1.000  O
  O1325    1.0000 0.75752  0.12942  0.63190  Biso   1.000  O
  O1326    1.0000 0.90732  0.12942  0.03550  Biso   1.000  O
  O1327    1.0000 0.75752  0.53542  0.03550  Biso   1.000  O
  O1328    1.0000 0.90732  0.53542  0.63190  Biso   1.000  O
  O1329    1.0000 0.53422  0.90732  0.63070  Biso   1.000  O
  O1330    1.0000 0.13062  0.75752  0.63070  Biso   1.000  O
  O1331    1.0000 0.13062  0.90732  0.03670  Biso   1.000  O
  O1332    1.0000 0.53422  0.75752  0.03670  Biso   1.000  O
  O1333    1.0000 0.12942  0.90732  0.63190  Biso   1.000  O
  O1334    1.0000 0.12942  0.75752  0.03550  Biso   1.000  O
  O1335    1.0000 0.53542  0.90732  0.03550  Biso   1.000  O
  O1336    1.0000 0.53542  0.75752  0.63190  Biso   1.000  O
  O1337    1.0000 0.90732  0.13062  0.63070  Biso   1.000  O
  O1338    1.0000 0.75752  0.53422  0.63070  Biso   1.000  O
  O1339    1.0000 0.90732  0.53422  0.03670  Biso   1.000  O
  O1340    1.0000 0.75752  0.13062  0.03670  Biso   1.000  O
  O1341    1.0000 0.13062  0.12942  0.40860  Biso   1.000  O
  O1342    1.0000 0.53422  0.12942  0.25880  Biso   1.000  O
  O1343    1.0000 0.53422  0.53542  0.40860  Biso   1.000  O
  O1344    1.0000 0.13062  0.53542  0.25880  Biso   1.000  O
  O1345    1.0000 0.12942  0.03422  0.75880  Biso   1.000  O
  O1346    1.0000 0.12942  0.63062  0.90860  Biso   1.000  O
  O1347    1.0000 0.53542  0.63062  0.75880  Biso   1.000  O
  O1348    1.0000 0.53542  0.03422  0.90860  Biso   1.000  O
  O1349    1.0000 0.90732  0.03542  0.53550  Biso   1.000  O
  O1350    1.0000 0.75752  0.03542  0.13190  Biso   1.000  O
  O1351    1.0000 0.90732  0.62942  0.13190  Biso   1.000  O
  O1352    1.0000 0.75752  0.62942  0.53550  Biso   1.000  O
  O1353    1.0000 0.13062  0.25752  0.53670  Biso   1.000  O
  O1354    1.0000 0.53422  0.40732  0.53670  Biso   1.000  O
  O1355    1.0000 0.53422  0.25752  0.13070  Biso   1.000  O
  O1356    1.0000 0.13062  0.40732  0.13070  Biso   1.000  O
  O1357    1.0000 0.53542  0.25752  0.53550  Biso   1.000  O
  O1358    1.0000 0.53542  0.40732  0.13190  Biso   1.000  O
  O1359    1.0000 0.12942  0.25752  0.13190  Biso   1.000  O
  O1360    1.0000 0.12942  0.40732  0.53550  Biso   1.000  O
  O1361    1.0000 0.75752  0.03422  0.53670  Biso   1.000  O
  O1362    1.0000 0.90732  0.63062  0.53670  Biso   1.000  O
  O1363    1.0000 0.75752  0.63062  0.13070  Biso   1.000  O
  O1364    1.0000 0.90732  0.03422  0.13070  Biso   1.000  O
  O1365    1.0000 0.53422  0.03542  0.75880  Biso   1.000  O
  O1366    1.0000 0.13062  0.03542  0.90860  Biso   1.000  O
  O1367    1.0000 0.13062  0.62942  0.75880  Biso   1.000  O
  O1368    1.0000 0.53422  0.62942  0.90860  Biso   1.000  O
  O1369    1.0000 0.62942  0.03422  0.25880  Biso   1.000  O
  O1370    1.0000 0.62942  0.63062  0.40860  Biso   1.000  O
  O1371    1.0000 0.03542  0.63062  0.25880  Biso   1.000  O
  O1372    1.0000 0.03542  0.03422  0.40860  Biso   1.000  O
  O1373    1.0000 0.40732  0.03542  0.03550  Biso   1.000  O
  O1374    1.0000 0.25752  0.03542  0.63190  Biso   1.000  O
  O1375    1.0000 0.40732  0.62942  0.63190  Biso   1.000  O
  O1376    1.0000 0.25752  0.62942  0.03550  Biso   1.000  O
  O1377    1.0000 0.63062  0.25752  0.03670  Biso   1.000  O
  O1378    1.0000 0.03422  0.40732  0.03670  Biso   1.000  O
  O1379    1.0000 0.03422  0.25752  0.63070  Biso   1.000  O
  O1380    1.0000 0.63062  0.40732  0.63070  Biso   1.000  O
  O1381    1.0000 0.03542  0.25752  0.03550  Biso   1.000  O
  O1382    1.0000 0.03542  0.40732  0.63190  Biso   1.000  O
  O1383    1.0000 0.62942  0.25752  0.63190  Biso   1.000  O
  O1384    1.0000 0.62942  0.40732  0.03550  Biso   1.000  O
  O1385    1.0000 0.25752  0.03422  0.03670  Biso   1.000  O
  O1386    1.0000 0.40732  0.63062  0.03670  Biso   1.000  O
  O1387    1.0000 0.25752  0.63062  0.63070  Biso   1.000  O
  O1388    1.0000 0.40732  0.03422  0.63070  Biso   1.000  O
  O1389    1.0000 0.03422  0.03542  0.25880  Biso   1.000  O
  O1390    1.0000 0.63062  0.03542  0.40860  Biso   1.000  O
  O1391    1.0000 0.63062  0.62942  0.25880  Biso   1.000  O
  O1392    1.0000 0.03422  0.62942  0.40860  Biso   1.000  O
  O1393    1.0000 0.62942  0.53422  0.75880  Biso   1.000  O
  O1394    1.0000 0.62942  0.13062  0.90860  Biso   1.000  O
  O1395    1.0000 0.03542  0.13062  0.75880  Biso   1.000  O
  O1396    1.0000 0.03542  0.53422  0.90860  Biso   1.000  O
  O1397    1.0000 0.40732  0.53542  0.53550  Biso   1.000  O
  O1398    1.0000 0.25752  0.53542  0.13190  Biso   1.000  O
  O1399    1.0000 0.40732  0.12942  0.13190  Biso   1.000  O
  O1400    1.0000 0.25752  0.12942  0.53550  Biso   1.000  O
  O1401    1.0000 0.63062  0.75752  0.53670  Biso   1.000  O
  O1402    1.0000 0.03422  0.90732  0.53670  Biso   1.000  O
  O1403    1.0000 0.03422  0.75752  0.13070  Biso   1.000  O
  O1404    1.0000 0.63062  0.90732  0.13070  Biso   1.000  O
  O1405    1.0000 0.03542  0.75752  0.53550  Biso   1.000  O
  O1406    1.0000 0.03542  0.90732  0.13190  Biso   1.000  O
  O1407    1.0000 0.62942  0.75752  0.13190  Biso   1.000  O
  O1408    1.0000 0.62942  0.90732  0.53550  Biso   1.000  O
  O1409    1.0000 0.25752  0.53422  0.53670  Biso   1.000  O
  O1410    1.0000 0.40732  0.13062  0.53670  Biso   1.000  O
  O1411    1.0000 0.25752  0.13062  0.13070  Biso   1.000  O
  O1412    1.0000 0.40732  0.53422  0.13070  Biso   1.000  O
  O1413    1.0000 0.03422  0.53542  0.75880  Biso   1.000  O
  O1414    1.0000 0.63062  0.53542  0.90860  Biso   1.000  O
  O1415    1.0000 0.63062  0.12942  0.75880  Biso   1.000  O
  O1416    1.0000 0.03422  0.12942  0.90860  Biso   1.000  O
  O1417    1.0000 0.12942  0.53422  0.25880  Biso   1.000  O
  O1418    1.0000 0.12942  0.13062  0.40860  Biso   1.000  O
  O1419    1.0000 0.53542  0.13062  0.25880  Biso   1.000  O
  O1420    1.0000 0.53542  0.53422  0.40860  Biso   1.000  O
  O1421    1.0000 0.90732  0.53542  0.03550  Biso   1.000  O
  O1422    1.0000 0.75752  0.53542  0.63190  Biso   1.000  O
  O1423    1.0000 0.90732  0.12942  0.63190  Biso   1.000  O
  O1424    1.0000 0.75752  0.12942  0.03550  Biso   1.000  O
  O1425    1.0000 0.13062  0.75752  0.03670  Biso   1.000  O
  O1426    1.0000 0.53422  0.90732  0.03670  Biso   1.000  O
  O1427    1.0000 0.53422  0.75752  0.63070  Biso   1.000  O
  O1428    1.0000 0.13062  0.90732  0.63070  Biso   1.000  O
  O1429    1.0000 0.53542  0.75752  0.03550  Biso   1.000  O
  O1430    1.0000 0.53542  0.90732  0.63190  Biso   1.000  O
  O1431    1.0000 0.12942  0.75752  0.63190  Biso   1.000  O
  O1432    1.0000 0.12942  0.90732  0.03550  Biso   1.000  O
  O1433    1.0000 0.75752  0.53422  0.03670  Biso   1.000  O
  O1434    1.0000 0.90732  0.13062  0.03670  Biso   1.000  O
  O1435    1.0000 0.75752  0.13062  0.63070  Biso   1.000  O
  O1436    1.0000 0.90732  0.53422  0.63070  Biso   1.000  O
  O1437    1.0000 0.53422  0.53542  0.25880  Biso   1.000  O
  O1438    1.0000 0.13062  0.53542  0.40860  Biso   1.000  O
  O1439    1.0000 0.13062  0.12942  0.25880  Biso   1.000  O
  O1440    1.0000 0.53422  0.12942  0.40860  Biso   1.000  O
  O1441    1.0000 0.53892  0.62592  0.86070  Biso   1.000  O
  O1442    1.0000 0.53892  0.03892  0.80670  Biso   1.000  O
  O1443    1.0000 0.12592  0.03892  0.86070  Biso   1.000  O
  O1444    1.0000 0.12592  0.62592  0.80670  Biso   1.000  O
  O1445    1.0000 0.80542  0.62592  0.12720  Biso   1.000  O
  O1446    1.0000 0.85942  0.62592  0.54020  Biso   1.000  O
  O1447    1.0000 0.80542  0.03892  0.54020  Biso   1.000  O
  O1448    1.0000 0.85942  0.03892  0.12720  Biso   1.000  O
  O1449    1.0000 0.53892  0.35942  0.12720  Biso   1.000  O
  O1450    1.0000 0.12592  0.30542  0.12720  Biso   1.000  O
  O1451    1.0000 0.12592  0.35942  0.54020  Biso   1.000  O
  O1452    1.0000 0.53892  0.30542  0.54020  Biso   1.000  O
  O1453    1.0000 0.12592  0.35942  0.12720  Biso   1.000  O
  O1454    1.0000 0.12592  0.30542  0.54020  Biso   1.000  O
  O1455    1.0000 0.53892  0.35942  0.54020  Biso   1.000  O
  O1456    1.0000 0.53892  0.30542  0.12720  Biso   1.000  O
  O1457    1.0000 0.85942  0.62592  0.12720  Biso   1.000  O
  O1458    1.0000 0.80542  0.03892  0.12720  Biso   1.000  O
  O1459    1.0000 0.85942  0.03892  0.54020  Biso   1.000  O
  O1460    1.0000 0.80542  0.62592  0.54020  Biso   1.000  O
  O1461    1.0000 0.12592  0.62592  0.86070  Biso   1.000  O
  O1462    1.0000 0.53892  0.62592  0.80670  Biso   1.000  O
  O1463    1.0000 0.53892  0.03892  0.86070  Biso   1.000  O
  O1464    1.0000 0.12592  0.03892  0.80670  Biso   1.000  O
  O1465    1.0000 0.03892  0.62592  0.36070  Biso   1.000  O
  O1466    1.0000 0.03892  0.03892  0.30670  Biso   1.000  O
  O1467    1.0000 0.62592  0.03892  0.36070  Biso   1.000  O
  O1468    1.0000 0.62592  0.62592  0.30670  Biso   1.000  O
  O1469    1.0000 0.30542  0.62592  0.62720  Biso   1.000  O
  O1470    1.0000 0.35942  0.62592  0.04020  Biso   1.000  O
  O1471    1.0000 0.30542  0.03892  0.04020  Biso   1.000  O
  O1472    1.0000 0.35942  0.03892  0.62720  Biso   1.000  O
  O1473    1.0000 0.03892  0.35942  0.62720  Biso   1.000  O
  O1474    1.0000 0.62592  0.30542  0.62720  Biso   1.000  O
  O1475    1.0000 0.62592  0.35942  0.04020  Biso   1.000  O
  O1476    1.0000 0.03892  0.30542  0.04020  Biso   1.000  O
  O1477    1.0000 0.62592  0.35942  0.62720  Biso   1.000  O
  O1478    1.0000 0.62592  0.30542  0.04020  Biso   1.000  O
  O1479    1.0000 0.03892  0.35942  0.04020  Biso   1.000  O
  O1480    1.0000 0.03892  0.30542  0.62720  Biso   1.000  O
  O1481    1.0000 0.35942  0.62592  0.62720  Biso   1.000  O
  O1482    1.0000 0.30542  0.03892  0.62720  Biso   1.000  O
  O1483    1.0000 0.35942  0.03892  0.04020  Biso   1.000  O
  O1484    1.0000 0.30542  0.62592  0.04020  Biso   1.000  O
  O1485    1.0000 0.62592  0.62592  0.36070  Biso   1.000  O
  O1486    1.0000 0.03892  0.62592  0.30670  Biso   1.000  O
  O1487    1.0000 0.03892  0.03892  0.36070  Biso   1.000  O
  O1488    1.0000 0.62592  0.03892  0.30670  Biso   1.000  O
  O1489    1.0000 0.03892  0.12592  0.86070  Biso   1.000  O
  O1490    1.0000 0.03892  0.53892  0.80670  Biso   1.000  O
  O1491    1.0000 0.62592  0.53892  0.86070  Biso   1.000  O
  O1492    1.0000 0.62592  0.12592  0.80670  Biso   1.000  O
  O1493    1.0000 0.30542  0.12592  0.12720  Biso   1.000  O
  O1494    1.0000 0.35942  0.12592  0.54020  Biso   1.000  O
  O1495    1.0000 0.30542  0.53892  0.54020  Biso   1.000  O
  O1496    1.0000 0.35942  0.53892  0.12720  Biso   1.000  O
  O1497    1.0000 0.03892  0.85942  0.12720  Biso   1.000  O
  O1498    1.0000 0.62592  0.80542  0.12720  Biso   1.000  O
  O1499    1.0000 0.62592  0.85942  0.54020  Biso   1.000  O
  O1500    1.0000 0.03892  0.80542  0.54020  Biso   1.000  O
  O1501    1.0000 0.62592  0.85942  0.12720  Biso   1.000  O
  O1502    1.0000 0.62592  0.80542  0.54020  Biso   1.000  O
  O1503    1.0000 0.03892  0.85942  0.54020  Biso   1.000  O
  O1504    1.0000 0.03892  0.80542  0.12720  Biso   1.000  O
  O1505    1.0000 0.35942  0.12592  0.12720  Biso   1.000  O
  O1506    1.0000 0.30542  0.53892  0.12720  Biso   1.000  O
  O1507    1.0000 0.35942  0.53892  0.54020  Biso   1.000  O
  O1508    1.0000 0.30542  0.12592  0.54020  Biso   1.000  O
  O1509    1.0000 0.62592  0.12592  0.86070  Biso   1.000  O
  O1510    1.0000 0.03892  0.12592  0.80670  Biso   1.000  O
  O1511    1.0000 0.03892  0.53892  0.86070  Biso   1.000  O
  O1512    1.0000 0.62592  0.53892  0.80670  Biso   1.000  O
  O1513    1.0000 0.53892  0.12592  0.36070  Biso   1.000  O
  O1514    1.0000 0.53892  0.53892  0.30670  Biso   1.000  O
  O1515    1.0000 0.12592  0.53892  0.36070  Biso   1.000  O
  O1516    1.0000 0.12592  0.12592  0.30670  Biso   1.000  O
  O1517    1.0000 0.80542  0.12592  0.62720  Biso   1.000  O
  O1518    1.0000 0.85942  0.12592  0.04020  Biso   1.000  O
  O1519    1.0000 0.80542  0.53892  0.04020  Biso   1.000  O
  O1520    1.0000 0.85942  0.53892  0.62720  Biso   1.000  O
  O1521    1.0000 0.53892  0.85942  0.62720  Biso   1.000  O
  O1522    1.0000 0.12592  0.80542  0.62720  Biso   1.000  O
  O1523    1.0000 0.12592  0.85942  0.04020  Biso   1.000  O
  O1524    1.0000 0.53892  0.80542  0.04020  Biso   1.000  O
  O1525    1.0000 0.12592  0.85942  0.62720  Biso   1.000  O
  O1526    1.0000 0.12592  0.80542  0.04020  Biso   1.000  O
  O1527    1.0000 0.53892  0.85942  0.04020  Biso   1.000  O
  O1528    1.0000 0.53892  0.80542  0.62720  Biso   1.000  O
  O1529    1.0000 0.85942  0.12592  0.62720  Biso   1.000  O
  O1530    1.0000 0.80542  0.53892  0.62720  Biso   1.000  O
  O1531    1.0000 0.85942  0.53892  0.04020  Biso   1.000  O
  O1532    1.0000 0.80542  0.12592  0.04020  Biso   1.000  O
  O1533    1.0000 0.12592  0.12592  0.36070  Biso   1.000  O
  O1534    1.0000 0.53892  0.12592  0.30670  Biso   1.000  O
  O1535    1.0000 0.53892  0.53892  0.36070  Biso   1.000  O
  O1536    1.0000 0.12592  0.53892  0.30670  Biso   1.000  O
  O1537    1.0000 0.58242  0.58242  0.08370  Biso   1.000  O
  O1538    1.0000 0.58242  0.08242  0.58370  Biso   1.000  O
  O1539    1.0000 0.08242  0.08242  0.08370  Biso   1.000  O
  O1540    1.0000 0.08242  0.58242  0.58370  Biso   1.000  O
  O1541    1.0000 0.08242  0.58242  0.08370  Biso   1.000  O
  O1542    1.0000 0.08242  0.08242  0.58370  Biso   1.000  O
  O1543    1.0000 0.58242  0.58242  0.58370  Biso   1.000  O
  O1544    1.0000 0.58242  0.08242  0.08370  Biso   1.000  O
  O1545    1.0000 0.56332  0.56332  0.01450  Biso   1.000  O
  O1546    1.0000 0.56332  0.10152  0.65290  Biso   1.000  O
  O1547    1.0000 0.10152  0.10152  0.01450  Biso   1.000  O
  O1548    1.0000 0.10152  0.56332  0.65290  Biso   1.000  O
  O1549    1.0000 0.65162  0.60152  0.06460  Biso   1.000  O
  O1550    1.0000 0.01322  0.60152  0.60280  Biso   1.000  O
  O1551    1.0000 0.65162  0.06332  0.60280  Biso   1.000  O
  O1552    1.0000 0.01322  0.06332  0.06460  Biso   1.000  O
  O1553    1.0000 0.60152  0.51322  0.10280  Biso   1.000  O
  O1554    1.0000 0.06332  0.15162  0.10280  Biso   1.000  O
  O1555    1.0000 0.06332  0.51322  0.56460  Biso   1.000  O
  O1556    1.0000 0.60152  0.15162  0.56460  Biso   1.000  O
  O1557    1.0000 0.10152  0.51322  0.06460  Biso   1.000  O
  O1558    1.0000 0.10152  0.15162  0.60280  Biso   1.000  O
  O1559    1.0000 0.56332  0.51322  0.60280  Biso   1.000  O
  O1560    1.0000 0.56332  0.15162  0.06460  Biso   1.000  O
  O1561    1.0000 0.01322  0.56332  0.10280  Biso   1.000  O
  O1562    1.0000 0.65162  0.10152  0.10280  Biso   1.000  O
  O1563    1.0000 0.01322  0.10152  0.56460  Biso   1.000  O
  O1564    1.0000 0.65162  0.56332  0.56460  Biso   1.000  O
  O1565    1.0000 0.06332  0.60152  0.01450  Biso   1.000  O
  O1566    1.0000 0.60152  0.60152  0.65290  Biso   1.000  O
  O1567    1.0000 0.60152  0.06332  0.01450  Biso   1.000  O
  O1568    1.0000 0.06332  0.06332  0.65290  Biso   1.000  O
  O1569    1.0000 0.06332  0.56332  0.51450  Biso   1.000  O
  O1570    1.0000 0.06332  0.10152  0.15290  Biso   1.000  O
  O1571    1.0000 0.60152  0.10152  0.51450  Biso   1.000  O
  O1572    1.0000 0.60152  0.56332  0.15290  Biso   1.000  O
  O1573    1.0000 0.15162  0.60152  0.56460  Biso   1.000  O
  O1574    1.0000 0.51322  0.60152  0.10280  Biso   1.000  O
  O1575    1.0000 0.15162  0.06332  0.10280  Biso   1.000  O
  O1576    1.0000 0.51322  0.06332  0.56460  Biso   1.000  O
  O1577    1.0000 0.10152  0.51322  0.60280  Biso   1.000  O
  O1578    1.0000 0.56332  0.15162  0.60280  Biso   1.000  O
  O1579    1.0000 0.56332  0.51322  0.06460  Biso   1.000  O
  O1580    1.0000 0.10152  0.15162  0.06460  Biso   1.000  O
  O1581    1.0000 0.60152  0.51322  0.56460  Biso   1.000  O
  O1582    1.0000 0.60152  0.15162  0.10280  Biso   1.000  O
  O1583    1.0000 0.06332  0.51322  0.10280  Biso   1.000  O
  O1584    1.0000 0.06332  0.15162  0.56460  Biso   1.000  O
  O1585    1.0000 0.51322  0.56332  0.60280  Biso   1.000  O
  O1586    1.0000 0.15162  0.10152  0.60280  Biso   1.000  O
  O1587    1.0000 0.51322  0.10152  0.06460  Biso   1.000  O
  O1588    1.0000 0.15162  0.56332  0.06460  Biso   1.000  O
  O1589    1.0000 0.56332  0.60152  0.51450  Biso   1.000  O
  O1590    1.0000 0.10152  0.60152  0.15290  Biso   1.000  O
  O1591    1.0000 0.10152  0.06332  0.51450  Biso   1.000  O
  O1592    1.0000 0.56332  0.06332  0.15290  Biso   1.000  O
  O1593    1.0000 0.06332  0.06332  0.01450  Biso   1.000  O
  O1594    1.0000 0.06332  0.60152  0.65290  Biso   1.000  O
  O1595    1.0000 0.60152  0.60152  0.01450  Biso   1.000  O
  O1596    1.0000 0.60152  0.06332  0.65290  Biso   1.000  O
  O1597    1.0000 0.15162  0.10152  0.06460  Biso   1.000  O
  O1598    1.0000 0.51322  0.10152  0.60280  Biso   1.000  O
  O1599    1.0000 0.15162  0.56332  0.60280  Biso   1.000  O
  O1600    1.0000 0.51322  0.56332  0.06460  Biso   1.000  O
  O1601    1.0000 0.10152  0.01322  0.10280  Biso   1.000  O
  O1602    1.0000 0.56332  0.65162  0.10280  Biso   1.000  O
  O1603    1.0000 0.56332  0.01322  0.56460  Biso   1.000  O
  O1604    1.0000 0.10152  0.65162  0.56460  Biso   1.000  O
  O1605    1.0000 0.60152  0.01322  0.06460  Biso   1.000  O
  O1606    1.0000 0.60152  0.65162  0.60280  Biso   1.000  O
  O1607    1.0000 0.06332  0.01322  0.60280  Biso   1.000  O
  O1608    1.0000 0.06332  0.65162  0.06460  Biso   1.000  O
  O1609    1.0000 0.51322  0.06332  0.10280  Biso   1.000  O
  O1610    1.0000 0.15162  0.60152  0.10280  Biso   1.000  O
  O1611    1.0000 0.51322  0.60152  0.56460  Biso   1.000  O
  O1612    1.0000 0.15162  0.06332  0.56460  Biso   1.000  O
  O1613    1.0000 0.56332  0.10152  0.01450  Biso   1.000  O
  O1614    1.0000 0.10152  0.10152  0.65290  Biso   1.000  O
  O1615    1.0000 0.10152  0.56332  0.01450  Biso   1.000  O
  O1616    1.0000 0.56332  0.56332  0.65290  Biso   1.000  O
  O1617    1.0000 0.56332  0.06332  0.51450  Biso   1.000  O
  O1618    1.0000 0.56332  0.60152  0.15290  Biso   1.000  O
  O1619    1.0000 0.10152  0.60152  0.51450  Biso   1.000  O
  O1620    1.0000 0.10152  0.06332  0.15290  Biso   1.000  O
  O1621    1.0000 0.65162  0.10152  0.56460  Biso   1.000  O
  O1622    1.0000 0.01322  0.10152  0.10280  Biso   1.000  O
  O1623    1.0000 0.65162  0.56332  0.10280  Biso   1.000  O
  O1624    1.0000 0.01322  0.56332  0.56460  Biso   1.000  O
  O1625    1.0000 0.60152  0.01322  0.60280  Biso   1.000  O
  O1626    1.0000 0.06332  0.65162  0.60280  Biso   1.000  O
  O1627    1.0000 0.06332  0.01322  0.06460  Biso   1.000  O
  O1628    1.0000 0.60152  0.65162  0.06460  Biso   1.000  O
  O1629    1.0000 0.10152  0.01322  0.56460  Biso   1.000  O
  O1630    1.0000 0.10152  0.65162  0.10280  Biso   1.000  O
  O1631    1.0000 0.56332  0.01322  0.10280  Biso   1.000  O
  O1632    1.0000 0.56332  0.65162  0.56460  Biso   1.000  O
  O1633    1.0000 0.01322  0.06332  0.60280  Biso   1.000  O
  O1634    1.0000 0.65162  0.60152  0.60280  Biso   1.000  O
  O1635    1.0000 0.01322  0.60152  0.06460  Biso   1.000  O
  O1636    1.0000 0.65162  0.06332  0.06460  Biso   1.000  O
  O1637    1.0000 0.06332  0.10152  0.51450  Biso   1.000  O
  O1638    1.0000 0.60152  0.10152  0.15290  Biso   1.000  O
  O1639    1.0000 0.60152  0.56332  0.51450  Biso   1.000  O
  O1640    1.0000 0.06332  0.56332  0.15290  Biso   1.000  O
  O1641    1.0000 0.55625  0.55625  0.05753  Biso   1.000  O
  O1642    1.0000 0.55625  0.10859  0.60987  Biso   1.000  O
  O1643    1.0000 0.10859  0.10859  0.05753  Biso   1.000  O
  O1644    1.0000 0.10859  0.55625  0.60987  Biso   1.000  O
  O1645    1.0000 0.60859  0.60859  0.05753  Biso   1.000  O
  O1646    1.0000 0.05625  0.60859  0.60987  Biso   1.000  O
  O1647    1.0000 0.60859  0.05625  0.60987  Biso   1.000  O
  O1648    1.0000 0.05625  0.05625  0.05753  Biso   1.000  O
  O1649    1.0000 0.60859  0.55625  0.10987  Biso   1.000  O
  O1650    1.0000 0.05625  0.10859  0.10987  Biso   1.000  O
  O1651    1.0000 0.05625  0.55625  0.55753  Biso   1.000  O
  O1652    1.0000 0.60859  0.10859  0.55753  Biso   1.000  O
  O1653    1.0000 0.10859  0.55625  0.05753  Biso   1.000  O
  O1654    1.0000 0.10859  0.10859  0.60987  Biso   1.000  O
  O1655    1.0000 0.55625  0.55625  0.60987  Biso   1.000  O
  O1656    1.0000 0.55625  0.10859  0.05753  Biso   1.000  O
  O1657    1.0000 0.05625  0.55625  0.10987  Biso   1.000  O
  O1658    1.0000 0.60859  0.10859  0.10987  Biso   1.000  O
  O1659    1.0000 0.05625  0.10859  0.55753  Biso   1.000  O
  O1660    1.0000 0.60859  0.55625  0.55753  Biso   1.000  O
  O1661    1.0000 0.05625  0.60859  0.05753  Biso   1.000  O
  O1662    1.0000 0.60859  0.60859  0.60987  Biso   1.000  O
  O1663    1.0000 0.60859  0.05625  0.05753  Biso   1.000  O
  O1664    1.0000 0.05625  0.05625  0.60987  Biso   1.000  O
  O1665    1.0000 0.10859  0.60859  0.55753  Biso   1.000  O
  O1666    1.0000 0.55625  0.60859  0.10987  Biso   1.000  O
  O1667    1.0000 0.10859  0.05625  0.10987  Biso   1.000  O
  O1668    1.0000 0.55625  0.05625  0.55753  Biso   1.000  O
  O1669    1.0000 0.55625  0.60859  0.55753  Biso   1.000  O
  O1670    1.0000 0.10859  0.60859  0.10987  Biso   1.000  O
  O1671    1.0000 0.10859  0.05625  0.55753  Biso   1.000  O
