data_image0
_cell_length_a       48.5825
_cell_length_b       48.5825
_cell_length_c       48.5825
_cell_angle_alpha    60
_cell_angle_beta     60
_cell_angle_gamma    60

_symmetry_space_group_name_H-M    "P 1"
_symmetry_int_tables_number       1

loop_
  _symmetry_equiv_pos_as_xyz
  'x, y, z'

loop_
  _atom_site_label
  _atom_site_occupancy
  _atom_site_fract_x
  _atom_site_fract_y
  _atom_site_fract_z
  _atom_site_thermal_displace_type
  _atom_site_B_iso_or_equiv
  _atom_site_type_symbol
  C1       1.0000 0.50000  0.50000  0.29320  Biso   1.000  C
  C2       1.0000 0.50000  0.50000  0.33576  Biso   1.000  C
  C3       1.0000 0.50000  0.50000  0.70680  Biso   1.000  C
  C4       1.0000 0.50000  0.50000  0.66424  Biso   1.000  C
  C5       1.0000 0.29320  0.70680  0.50000  Biso   1.000  C
  C6       1.0000 0.33576  0.66424  0.50000  Biso   1.000  C
  C7       1.0000 0.70680  0.29320  0.50000  Biso   1.000  C
  C8       1.0000 0.66424  0.33576  0.50000  Biso   1.000  C
  C9       1.0000 0.50000  0.29320  0.70680  Biso   1.000  C
  C10      1.0000 0.50000  0.33576  0.66424  Biso   1.000  C
  C11      1.0000 0.50000  0.70680  0.29320  Biso   1.000  C
  C12      1.0000 0.50000  0.66424  0.33576  Biso   1.000  C
  C13      1.0000 0.29320  0.50000  0.50000  Biso   1.000  C
  C14      1.0000 0.33576  0.50000  0.50000  Biso   1.000  C
  C15      1.0000 0.70680  0.50000  0.50000  Biso   1.000  C
  C16      1.0000 0.66424  0.50000  0.50000  Biso   1.000  C
  C17      1.0000 0.50000  0.70680  0.50000  Biso   1.000  C
  C18      1.0000 0.50000  0.66424  0.50000  Biso   1.000  C
  C19      1.0000 0.50000  0.29320  0.50000  Biso   1.000  C
  C20      1.0000 0.50000  0.33576  0.50000  Biso   1.000  C
  C21      1.0000 0.29320  0.50000  0.70680  Biso   1.000  C
  C22      1.0000 0.33576  0.50000  0.66424  Biso   1.000  C
  C23      1.0000 0.70680  0.50000  0.29320  Biso   1.000  C
  C24      1.0000 0.66424  0.50000  0.33576  Biso   1.000  C
  C25      1.0000 0.51570  0.39730  0.31930  Biso   1.000  C
  C26      1.0000 0.52570  0.34550  0.26130  Biso   1.000  C
  C27      1.0000 0.53240  0.31400  0.23260  Biso   1.000  C
  C28      1.0000 0.53650  0.25510  0.17890  Biso   1.000  C
  C29      1.0000 0.54960  0.22680  0.14800  Biso   1.000  C
  C30      1.0000 0.39730  0.51570  0.76770  Biso   1.000  C
  C31      1.0000 0.34550  0.52570  0.86750  Biso   1.000  C
  C32      1.0000 0.31400  0.53240  0.92100  Biso   1.000  C
  C33      1.0000 0.25510  0.53650  0.02950  Biso   1.000  C
  C34      1.0000 0.22680  0.54960  0.07560  Biso   1.000  C
  C35      1.0000 0.31930  0.76770  0.51570  Biso   1.000  C
  C36      1.0000 0.26130  0.86750  0.52570  Biso   1.000  C
  C37      1.0000 0.23260  0.92100  0.53240  Biso   1.000  C
  C38      1.0000 0.17890  0.02950  0.53650  Biso   1.000  C
  C39      1.0000 0.14800  0.07560  0.54960  Biso   1.000  C
  C40      1.0000 0.76770  0.31930  0.39730  Biso   1.000  C
  C41      1.0000 0.86750  0.26130  0.34550  Biso   1.000  C
  C42      1.0000 0.92100  0.23260  0.31400  Biso   1.000  C
  C43      1.0000 0.02950  0.17890  0.25510  Biso   1.000  C
  C44      1.0000 0.07560  0.14800  0.22680  Biso   1.000  C
  C45      1.0000 0.51570  0.31930  0.76770  Biso   1.000  C
  C46      1.0000 0.52570  0.26130  0.86750  Biso   1.000  C
  C47      1.0000 0.53240  0.23260  0.92100  Biso   1.000  C
  C48      1.0000 0.53650  0.17890  0.02950  Biso   1.000  C
  C49      1.0000 0.54960  0.14800  0.07560  Biso   1.000  C
  C50      1.0000 0.39730  0.76770  0.31930  Biso   1.000  C
  C51      1.0000 0.34550  0.86750  0.26130  Biso   1.000  C
  C52      1.0000 0.31400  0.92100  0.23260  Biso   1.000  C
  C53      1.0000 0.25510  0.02950  0.17890  Biso   1.000  C
  C54      1.0000 0.22680  0.07560  0.14800  Biso   1.000  C
  C55      1.0000 0.31930  0.51570  0.39730  Biso   1.000  C
  C56      1.0000 0.26130  0.52570  0.34550  Biso   1.000  C
  C57      1.0000 0.23260  0.53240  0.31400  Biso   1.000  C
  C58      1.0000 0.17890  0.53650  0.25510  Biso   1.000  C
  C59      1.0000 0.14800  0.54960  0.22680  Biso   1.000  C
  C60      1.0000 0.76770  0.39730  0.51570  Biso   1.000  C
  C61      1.0000 0.86750  0.34550  0.52570  Biso   1.000  C
  C62      1.0000 0.92100  0.31400  0.53240  Biso   1.000  C
  C63      1.0000 0.02950  0.25510  0.53650  Biso   1.000  C
  C64      1.0000 0.07560  0.22680  0.54960  Biso   1.000  C
  C65      1.0000 0.51570  0.76770  0.39730  Biso   1.000  C
  C66      1.0000 0.52570  0.86750  0.34550  Biso   1.000  C
  C67      1.0000 0.53240  0.92100  0.31400  Biso   1.000  C
  C68      1.0000 0.53650  0.02950  0.25510  Biso   1.000  C
  C69      1.0000 0.54960  0.07560  0.22680  Biso   1.000  C
  C70      1.0000 0.39730  0.31930  0.51570  Biso   1.000  C
  C71      1.0000 0.34550  0.26130  0.52570  Biso   1.000  C
  C72      1.0000 0.31400  0.23260  0.53240  Biso   1.000  C
  C73      1.0000 0.25510  0.17890  0.53650  Biso   1.000  C
  C74      1.0000 0.22680  0.14800  0.54960  Biso   1.000  C
  C75      1.0000 0.31930  0.39730  0.76770  Biso   1.000  C
  C76      1.0000 0.26130  0.34550  0.86750  Biso   1.000  C
  C77      1.0000 0.23260  0.31400  0.92100  Biso   1.000  C
  C78      1.0000 0.17890  0.25510  0.02950  Biso   1.000  C
  C79      1.0000 0.14800  0.22680  0.07560  Biso   1.000  C
  C80      1.0000 0.76770  0.51570  0.31930  Biso   1.000  C
  C81      1.0000 0.86750  0.52570  0.26130  Biso   1.000  C
  C82      1.0000 0.92100  0.53240  0.23260  Biso   1.000  C
  C83      1.0000 0.02950  0.53650  0.17890  Biso   1.000  C
  C84      1.0000 0.07560  0.54960  0.14800  Biso   1.000  C
  C85      1.0000 0.60270  0.48430  0.68070  Biso   1.000  C
  C86      1.0000 0.65450  0.47430  0.73870  Biso   1.000  C
  C87      1.0000 0.68600  0.46760  0.76740  Biso   1.000  C
  C88      1.0000 0.74490  0.46350  0.82110  Biso   1.000  C
  C89      1.0000 0.77320  0.45040  0.85200  Biso   1.000  C
  C90      1.0000 0.48430  0.60270  0.23230  Biso   1.000  C
  C91      1.0000 0.47430  0.65450  0.13250  Biso   1.000  C
  C92      1.0000 0.46760  0.68600  0.07900  Biso   1.000  C
  C93      1.0000 0.46350  0.74490  0.97050  Biso   1.000  C
  C94      1.0000 0.45040  0.77320  0.92440  Biso   1.000  C
  C95      1.0000 0.23230  0.68070  0.48430  Biso   1.000  C
  C96      1.0000 0.13250  0.73870  0.47430  Biso   1.000  C
  C97      1.0000 0.07900  0.76740  0.46760  Biso   1.000  C
  C98      1.0000 0.97050  0.82110  0.46350  Biso   1.000  C
  C99      1.0000 0.92440  0.85200  0.45040  Biso   1.000  C
  C100     1.0000 0.68070  0.23230  0.60270  Biso   1.000  C
  C101     1.0000 0.73870  0.13250  0.65450  Biso   1.000  C
  C102     1.0000 0.76740  0.07900  0.68600  Biso   1.000  C
  C103     1.0000 0.82110  0.97050  0.74490  Biso   1.000  C
  C104     1.0000 0.85200  0.92440  0.77320  Biso   1.000  C
  C105     1.0000 0.68070  0.48430  0.23230  Biso   1.000  C
  C106     1.0000 0.73870  0.47430  0.13250  Biso   1.000  C
  C107     1.0000 0.76740  0.46760  0.07900  Biso   1.000  C
  C108     1.0000 0.82110  0.46350  0.97050  Biso   1.000  C
  C109     1.0000 0.85200  0.45040  0.92440  Biso   1.000  C
  C110     1.0000 0.23230  0.60270  0.68070  Biso   1.000  C
  C111     1.0000 0.13250  0.65450  0.73870  Biso   1.000  C
  C112     1.0000 0.07900  0.68600  0.76740  Biso   1.000  C
  C113     1.0000 0.97050  0.74490  0.82110  Biso   1.000  C
  C114     1.0000 0.92440  0.77320  0.85200  Biso   1.000  C
  C115     1.0000 0.48430  0.68070  0.60270  Biso   1.000  C
  C116     1.0000 0.47430  0.73870  0.65450  Biso   1.000  C
  C117     1.0000 0.46760  0.76740  0.68600  Biso   1.000  C
  C118     1.0000 0.46350  0.82110  0.74490  Biso   1.000  C
  C119     1.0000 0.45040  0.85200  0.77320  Biso   1.000  C
  C120     1.0000 0.60270  0.23230  0.48430  Biso   1.000  C
  C121     1.0000 0.65450  0.13250  0.47430  Biso   1.000  C
  C122     1.0000 0.68600  0.07900  0.46760  Biso   1.000  C
  C123     1.0000 0.74490  0.97050  0.46350  Biso   1.000  C
  C124     1.0000 0.77320  0.92440  0.45040  Biso   1.000  C
  C125     1.0000 0.23230  0.48430  0.60270  Biso   1.000  C
  C126     1.0000 0.13250  0.47430  0.65450  Biso   1.000  C
  C127     1.0000 0.07900  0.46760  0.68600  Biso   1.000  C
  C128     1.0000 0.97050  0.46350  0.74490  Biso   1.000  C
  C129     1.0000 0.92440  0.45040  0.77320  Biso   1.000  C
  C130     1.0000 0.68070  0.60270  0.48430  Biso   1.000  C
  C131     1.0000 0.73870  0.65450  0.47430  Biso   1.000  C
  C132     1.0000 0.76740  0.68600  0.46760  Biso   1.000  C
  C133     1.0000 0.82110  0.74490  0.46350  Biso   1.000  C
  C134     1.0000 0.85200  0.77320  0.45040  Biso   1.000  C
  C135     1.0000 0.60270  0.68070  0.23230  Biso   1.000  C
  C136     1.0000 0.65450  0.73870  0.13250  Biso   1.000  C
  C137     1.0000 0.68600  0.76740  0.07900  Biso   1.000  C
  C138     1.0000 0.74490  0.82110  0.97050  Biso   1.000  C
  C139     1.0000 0.77320  0.85200  0.92440  Biso   1.000  C
  C140     1.0000 0.48430  0.23230  0.68070  Biso   1.000  C
  C141     1.0000 0.47430  0.13250  0.73870  Biso   1.000  C
  C142     1.0000 0.46760  0.07900  0.76740  Biso   1.000  C
  C143     1.0000 0.46350  0.97050  0.82110  Biso   1.000  C
  C144     1.0000 0.45040  0.92440  0.85200  Biso   1.000  C
  C145     1.0000 0.48430  0.60270  0.68070  Biso   1.000  C
  C146     1.0000 0.47430  0.65450  0.73870  Biso   1.000  C
  C147     1.0000 0.46760  0.68600  0.76740  Biso   1.000  C
  C148     1.0000 0.46350  0.74490  0.82110  Biso   1.000  C
  C149     1.0000 0.45040  0.77320  0.85200  Biso   1.000  C
  C150     1.0000 0.60270  0.48430  0.23230  Biso   1.000  C
  C151     1.0000 0.65450  0.47430  0.13250  Biso   1.000  C
  C152     1.0000 0.68600  0.46760  0.07900  Biso   1.000  C
  C153     1.0000 0.74490  0.46350  0.97050  Biso   1.000  C
  C154     1.0000 0.77320  0.45040  0.92440  Biso   1.000  C
  C155     1.0000 0.68070  0.23230  0.48430  Biso   1.000  C
  C156     1.0000 0.73870  0.13250  0.47430  Biso   1.000  C
  C157     1.0000 0.76740  0.07900  0.46760  Biso   1.000  C
  C158     1.0000 0.82110  0.97050  0.46350  Biso   1.000  C
  C159     1.0000 0.85200  0.92440  0.45040  Biso   1.000  C
  C160     1.0000 0.23230  0.68070  0.60270  Biso   1.000  C
  C161     1.0000 0.13250  0.73870  0.65450  Biso   1.000  C
  C162     1.0000 0.07900  0.76740  0.68600  Biso   1.000  C
  C163     1.0000 0.97050  0.82110  0.74490  Biso   1.000  C
  C164     1.0000 0.92440  0.85200  0.77320  Biso   1.000  C
  C165     1.0000 0.48430  0.68070  0.23230  Biso   1.000  C
  C166     1.0000 0.47430  0.73870  0.13250  Biso   1.000  C
  C167     1.0000 0.46760  0.76740  0.07900  Biso   1.000  C
  C168     1.0000 0.46350  0.82110  0.97050  Biso   1.000  C
  C169     1.0000 0.45040  0.85200  0.92440  Biso   1.000  C
  C170     1.0000 0.60270  0.23230  0.68070  Biso   1.000  C
  C171     1.0000 0.65450  0.13250  0.73870  Biso   1.000  C
  C172     1.0000 0.68600  0.07900  0.76740  Biso   1.000  C
  C173     1.0000 0.74490  0.97050  0.82110  Biso   1.000  C
  C174     1.0000 0.77320  0.92440  0.85200  Biso   1.000  C
  C175     1.0000 0.68070  0.48430  0.60270  Biso   1.000  C
  C176     1.0000 0.73870  0.47430  0.65450  Biso   1.000  C
  C177     1.0000 0.76740  0.46760  0.68600  Biso   1.000  C
  C178     1.0000 0.82110  0.46350  0.74490  Biso   1.000  C
  C179     1.0000 0.85200  0.45040  0.77320  Biso   1.000  C
  C180     1.0000 0.23230  0.60270  0.48430  Biso   1.000  C
  C181     1.0000 0.13250  0.65450  0.47430  Biso   1.000  C
  C182     1.0000 0.07900  0.68600  0.46760  Biso   1.000  C
  C183     1.0000 0.97050  0.74490  0.46350  Biso   1.000  C
  C184     1.0000 0.92440  0.77320  0.45040  Biso   1.000  C
  C185     1.0000 0.48430  0.23230  0.60270  Biso   1.000  C
  C186     1.0000 0.47430  0.13250  0.65450  Biso   1.000  C
  C187     1.0000 0.46760  0.07900  0.68600  Biso   1.000  C
  C188     1.0000 0.46350  0.97050  0.74490  Biso   1.000  C
  C189     1.0000 0.45040  0.92440  0.77320  Biso   1.000  C
  C190     1.0000 0.60270  0.68070  0.48430  Biso   1.000  C
  C191     1.0000 0.65450  0.73870  0.47430  Biso   1.000  C
  C192     1.0000 0.68600  0.76740  0.46760  Biso   1.000  C
  C193     1.0000 0.74490  0.82110  0.46350  Biso   1.000  C
  C194     1.0000 0.77320  0.85200  0.45040  Biso   1.000  C
  C195     1.0000 0.68070  0.60270  0.23230  Biso   1.000  C
  C196     1.0000 0.73870  0.65450  0.13250  Biso   1.000  C
  C197     1.0000 0.76740  0.68600  0.07900  Biso   1.000  C
  C198     1.0000 0.82110  0.74490  0.97050  Biso   1.000  C
  C199     1.0000 0.85200  0.77320  0.92440  Biso   1.000  C
  C200     1.0000 0.23230  0.48430  0.68070  Biso   1.000  C
  C201     1.0000 0.13250  0.47430  0.73870  Biso   1.000  C
  C202     1.0000 0.07900  0.46760  0.76740  Biso   1.000  C
  C203     1.0000 0.97050  0.46350  0.82110  Biso   1.000  C
  C204     1.0000 0.92440  0.45040  0.85200  Biso   1.000  C
  C205     1.0000 0.39730  0.51570  0.31930  Biso   1.000  C
  C206     1.0000 0.34550  0.52570  0.26130  Biso   1.000  C
  C207     1.0000 0.31400  0.53240  0.23260  Biso   1.000  C
  C208     1.0000 0.25510  0.53650  0.17890  Biso   1.000  C
  C209     1.0000 0.22680  0.54960  0.14800  Biso   1.000  C
  C210     1.0000 0.51570  0.39730  0.76770  Biso   1.000  C
  C211     1.0000 0.52570  0.34550  0.86750  Biso   1.000  C
  C212     1.0000 0.53240  0.31400  0.92100  Biso   1.000  C
  C213     1.0000 0.53650  0.25510  0.02950  Biso   1.000  C
  C214     1.0000 0.54960  0.22680  0.07560  Biso   1.000  C
  C215     1.0000 0.76770  0.31930  0.51570  Biso   1.000  C
  C216     1.0000 0.86750  0.26130  0.52570  Biso   1.000  C
  C217     1.0000 0.92100  0.23260  0.53240  Biso   1.000  C
  C218     1.0000 0.02950  0.17890  0.53650  Biso   1.000  C
  C219     1.0000 0.07560  0.14800  0.54960  Biso   1.000  C
  C220     1.0000 0.31930  0.76770  0.39730  Biso   1.000  C
  C221     1.0000 0.26130  0.86750  0.34550  Biso   1.000  C
  C222     1.0000 0.23260  0.92100  0.31400  Biso   1.000  C
  C223     1.0000 0.17890  0.02950  0.25510  Biso   1.000  C
  C224     1.0000 0.14800  0.07560  0.22680  Biso   1.000  C
  C225     1.0000 0.31930  0.51570  0.76770  Biso   1.000  C
  C226     1.0000 0.26130  0.52570  0.86750  Biso   1.000  C
  C227     1.0000 0.23260  0.53240  0.92100  Biso   1.000  C
  C228     1.0000 0.17890  0.53650  0.02950  Biso   1.000  C
  C229     1.0000 0.14800  0.54960  0.07560  Biso   1.000  C
  C230     1.0000 0.76770  0.39730  0.31930  Biso   1.000  C
  C231     1.0000 0.86750  0.34550  0.26130  Biso   1.000  C
  C232     1.0000 0.92100  0.31400  0.23260  Biso   1.000  C
  C233     1.0000 0.02950  0.25510  0.17890  Biso   1.000  C
  C234     1.0000 0.07560  0.22680  0.14800  Biso   1.000  C
  C235     1.0000 0.51570  0.31930  0.39730  Biso   1.000  C
  C236     1.0000 0.52570  0.26130  0.34550  Biso   1.000  C
  C237     1.0000 0.53240  0.23260  0.31400  Biso   1.000  C
  C238     1.0000 0.53650  0.17890  0.25510  Biso   1.000  C
  C239     1.0000 0.54960  0.14800  0.22680  Biso   1.000  C
  C240     1.0000 0.39730  0.76770  0.51570  Biso   1.000  C
  C241     1.0000 0.34550  0.86750  0.52570  Biso   1.000  C
  C242     1.0000 0.31400  0.92100  0.53240  Biso   1.000  C
  C243     1.0000 0.25510  0.02950  0.53650  Biso   1.000  C
  C244     1.0000 0.22680  0.07560  0.54960  Biso   1.000  C
  C245     1.0000 0.76770  0.51570  0.39730  Biso   1.000  C
  C246     1.0000 0.86750  0.52570  0.34550  Biso   1.000  C
  C247     1.0000 0.92100  0.53240  0.31400  Biso   1.000  C
  C248     1.0000 0.02950  0.53650  0.25510  Biso   1.000  C
  C249     1.0000 0.07560  0.54960  0.22680  Biso   1.000  C
  C250     1.0000 0.31930  0.39730  0.51570  Biso   1.000  C
  C251     1.0000 0.26130  0.34550  0.52570  Biso   1.000  C
  C252     1.0000 0.23260  0.31400  0.53240  Biso   1.000  C
  C253     1.0000 0.17890  0.25510  0.53650  Biso   1.000  C
  C254     1.0000 0.14800  0.22680  0.54960  Biso   1.000  C
  C255     1.0000 0.39730  0.31930  0.76770  Biso   1.000  C
  C256     1.0000 0.34550  0.26130  0.86750  Biso   1.000  C
  C257     1.0000 0.31400  0.23260  0.92100  Biso   1.000  C
  C258     1.0000 0.25510  0.17890  0.02950  Biso   1.000  C
  C259     1.0000 0.22680  0.14800  0.07560  Biso   1.000  C
  C260     1.0000 0.51570  0.76770  0.31930  Biso   1.000  C
  C261     1.0000 0.52570  0.86750  0.26130  Biso   1.000  C
  C262     1.0000 0.53240  0.92100  0.23260  Biso   1.000  C
  C263     1.0000 0.53650  0.02950  0.17890  Biso   1.000  C
  C264     1.0000 0.54960  0.07560  0.14800  Biso   1.000  C
  C265     1.0000 0.51180  0.39860  0.39860  Biso   1.000  C
  C266     1.0000 0.39860  0.51180  0.69100  Biso   1.000  C
  C267     1.0000 0.39860  0.69100  0.51180  Biso   1.000  C
  C268     1.0000 0.69100  0.39860  0.39860  Biso   1.000  C
  C269     1.0000 0.51180  0.39860  0.69100  Biso   1.000  C
  C270     1.0000 0.39860  0.69100  0.39860  Biso   1.000  C
  C271     1.0000 0.39860  0.51180  0.39860  Biso   1.000  C
  C272     1.0000 0.69100  0.39860  0.51180  Biso   1.000  C
  C273     1.0000 0.51180  0.69100  0.39860  Biso   1.000  C
  C274     1.0000 0.39860  0.39860  0.51180  Biso   1.000  C
  C275     1.0000 0.39860  0.39860  0.69100  Biso   1.000  C
  C276     1.0000 0.69100  0.51180  0.39860  Biso   1.000  C
  C277     1.0000 0.60140  0.48820  0.60140  Biso   1.000  C
  C278     1.0000 0.48820  0.60140  0.30900  Biso   1.000  C
  C279     1.0000 0.30900  0.60140  0.48820  Biso   1.000  C
  C280     1.0000 0.60140  0.30900  0.60140  Biso   1.000  C
  C281     1.0000 0.60140  0.48820  0.30900  Biso   1.000  C
  C282     1.0000 0.30900  0.60140  0.60140  Biso   1.000  C
  C283     1.0000 0.48820  0.60140  0.60140  Biso   1.000  C
  C284     1.0000 0.60140  0.30900  0.48820  Biso   1.000  C
  C285     1.0000 0.30900  0.48820  0.60140  Biso   1.000  C
  C286     1.0000 0.60140  0.60140  0.48820  Biso   1.000  C
  C287     1.0000 0.60140  0.60140  0.30900  Biso   1.000  C
  C288     1.0000 0.48820  0.30900  0.60140  Biso   1.000  C
  C289     1.0000 0.56540  0.11740  0.19980  Biso   1.000  C
  C290     1.0000 0.11740  0.56540  0.11740  Biso   1.000  C
  C291     1.0000 0.19980  0.11740  0.56540  Biso   1.000  C
  C292     1.0000 0.11740  0.19980  0.11740  Biso   1.000  C
  C293     1.0000 0.56540  0.19980  0.11740  Biso   1.000  C
  C294     1.0000 0.11740  0.11740  0.19980  Biso   1.000  C
  C295     1.0000 0.19980  0.56540  0.11740  Biso   1.000  C
  C296     1.0000 0.11740  0.11740  0.56540  Biso   1.000  C
  C297     1.0000 0.56540  0.11740  0.11740  Biso   1.000  C
  C298     1.0000 0.11740  0.19980  0.56540  Biso   1.000  C
  C299     1.0000 0.19980  0.11740  0.11740  Biso   1.000  C
  C300     1.0000 0.11740  0.56540  0.19980  Biso   1.000  C
  C301     1.0000 0.88260  0.43460  0.80020  Biso   1.000  C
  C302     1.0000 0.43460  0.88260  0.88260  Biso   1.000  C
  C303     1.0000 0.88260  0.80020  0.43460  Biso   1.000  C
  C304     1.0000 0.80020  0.88260  0.88260  Biso   1.000  C
  C305     1.0000 0.80020  0.43460  0.88260  Biso   1.000  C
  C306     1.0000 0.88260  0.88260  0.80020  Biso   1.000  C
  C307     1.0000 0.43460  0.80020  0.88260  Biso   1.000  C
  C308     1.0000 0.88260  0.88260  0.43460  Biso   1.000  C
  C309     1.0000 0.88260  0.43460  0.88260  Biso   1.000  C
  C310     1.0000 0.80020  0.88260  0.43460  Biso   1.000  C
  C311     1.0000 0.88260  0.80020  0.88260  Biso   1.000  C
  C312     1.0000 0.43460  0.88260  0.80020  Biso   1.000  C
  C313     1.0000 0.50670  0.44250  0.33750  Biso   1.000  C
  C314     1.0000 0.51650  0.40570  0.35390  Biso   1.000  C
  C315     1.0000 0.51820  0.38580  0.34040  Biso   1.000  C
  C316     1.0000 0.52930  0.32230  0.27030  Biso   1.000  C
  C317     1.0000 0.53290  0.30350  0.25450  Biso   1.000  C
  C318     1.0000 0.54310  0.23170  0.18890  Biso   1.000  C
  C319     1.0000 0.54810  0.21470  0.17050  Biso   1.000  C
  C320     1.0000 0.44250  0.50670  0.71330  Biso   1.000  C
  C321     1.0000 0.40570  0.51650  0.72390  Biso   1.000  C
  C322     1.0000 0.38580  0.51820  0.75560  Biso   1.000  C
  C323     1.0000 0.32230  0.52930  0.87810  Biso   1.000  C
  C324     1.0000 0.30350  0.53290  0.90910  Biso   1.000  C
  C325     1.0000 0.23170  0.54310  0.03630  Biso   1.000  C
  C326     1.0000 0.21470  0.54810  0.06670  Biso   1.000  C
  C327     1.0000 0.33750  0.71330  0.50670  Biso   1.000  C
  C328     1.0000 0.35390  0.72390  0.51650  Biso   1.000  C
  C329     1.0000 0.34040  0.75560  0.51820  Biso   1.000  C
  C330     1.0000 0.27030  0.87810  0.52930  Biso   1.000  C
  C331     1.0000 0.25450  0.90910  0.53290  Biso   1.000  C
  C332     1.0000 0.18890  0.03630  0.54310  Biso   1.000  C
  C333     1.0000 0.17050  0.06670  0.54810  Biso   1.000  C
  C334     1.0000 0.71330  0.33750  0.44250  Biso   1.000  C
  C335     1.0000 0.72390  0.35390  0.40570  Biso   1.000  C
  C336     1.0000 0.75560  0.34040  0.38580  Biso   1.000  C
  C337     1.0000 0.87810  0.27030  0.32230  Biso   1.000  C
  C338     1.0000 0.90910  0.25450  0.30350  Biso   1.000  C
  C339     1.0000 0.03630  0.18890  0.23170  Biso   1.000  C
  C340     1.0000 0.06670  0.17050  0.21470  Biso   1.000  C
  C341     1.0000 0.50670  0.33750  0.71330  Biso   1.000  C
  C342     1.0000 0.51650  0.35390  0.72390  Biso   1.000  C
  C343     1.0000 0.51820  0.34040  0.75560  Biso   1.000  C
  C344     1.0000 0.52930  0.27030  0.87810  Biso   1.000  C
  C345     1.0000 0.53290  0.25450  0.90910  Biso   1.000  C
  C346     1.0000 0.54310  0.18890  0.03630  Biso   1.000  C
  C347     1.0000 0.54810  0.17050  0.06670  Biso   1.000  C
  C348     1.0000 0.44250  0.71330  0.33750  Biso   1.000  C
  C349     1.0000 0.40570  0.72390  0.35390  Biso   1.000  C
  C350     1.0000 0.38580  0.75560  0.34040  Biso   1.000  C
  C351     1.0000 0.32230  0.87810  0.27030  Biso   1.000  C
  C352     1.0000 0.30350  0.90910  0.25450  Biso   1.000  C
  C353     1.0000 0.23170  0.03630  0.18890  Biso   1.000  C
  C354     1.0000 0.21470  0.06670  0.17050  Biso   1.000  C
  C355     1.0000 0.33750  0.50670  0.44250  Biso   1.000  C
  C356     1.0000 0.35390  0.51650  0.40570  Biso   1.000  C
  C357     1.0000 0.34040  0.51820  0.38580  Biso   1.000  C
  C358     1.0000 0.27030  0.52930  0.32230  Biso   1.000  C
  C359     1.0000 0.25450  0.53290  0.30350  Biso   1.000  C
  C360     1.0000 0.18890  0.54310  0.23170  Biso   1.000  C
  C361     1.0000 0.17050  0.54810  0.21470  Biso   1.000  C
  C362     1.0000 0.71330  0.44250  0.50670  Biso   1.000  C
  C363     1.0000 0.72390  0.40570  0.51650  Biso   1.000  C
  C364     1.0000 0.75560  0.38580  0.51820  Biso   1.000  C
  C365     1.0000 0.87810  0.32230  0.52930  Biso   1.000  C
  C366     1.0000 0.90910  0.30350  0.53290  Biso   1.000  C
  C367     1.0000 0.03630  0.23170  0.54310  Biso   1.000  C
  C368     1.0000 0.06670  0.21470  0.54810  Biso   1.000  C
  C369     1.0000 0.50670  0.71330  0.44250  Biso   1.000  C
  C370     1.0000 0.51650  0.72390  0.40570  Biso   1.000  C
  C371     1.0000 0.51820  0.75560  0.38580  Biso   1.000  C
  C372     1.0000 0.52930  0.87810  0.32230  Biso   1.000  C
  C373     1.0000 0.53290  0.90910  0.30350  Biso   1.000  C
  C374     1.0000 0.54310  0.03630  0.23170  Biso   1.000  C
  C375     1.0000 0.54810  0.06670  0.21470  Biso   1.000  C
  C376     1.0000 0.44250  0.33750  0.50670  Biso   1.000  C
  C377     1.0000 0.40570  0.35390  0.51650  Biso   1.000  C
  C378     1.0000 0.38580  0.34040  0.51820  Biso   1.000  C
  C379     1.0000 0.32230  0.27030  0.52930  Biso   1.000  C
  C380     1.0000 0.30350  0.25450  0.53290  Biso   1.000  C
  C381     1.0000 0.23170  0.18890  0.54310  Biso   1.000  C
  C382     1.0000 0.21470  0.17050  0.54810  Biso   1.000  C
  C383     1.0000 0.33750  0.44250  0.71330  Biso   1.000  C
  C384     1.0000 0.35390  0.40570  0.72390  Biso   1.000  C
  C385     1.0000 0.34040  0.38580  0.75560  Biso   1.000  C
  C386     1.0000 0.27030  0.32230  0.87810  Biso   1.000  C
  C387     1.0000 0.25450  0.30350  0.90910  Biso   1.000  C
  C388     1.0000 0.18890  0.23170  0.03630  Biso   1.000  C
  C389     1.0000 0.17050  0.21470  0.06670  Biso   1.000  C
  C390     1.0000 0.71330  0.50670  0.33750  Biso   1.000  C
  C391     1.0000 0.72390  0.51650  0.35390  Biso   1.000  C
  C392     1.0000 0.75560  0.51820  0.34040  Biso   1.000  C
  C393     1.0000 0.87810  0.52930  0.27030  Biso   1.000  C
  C394     1.0000 0.90910  0.53290  0.25450  Biso   1.000  C
  C395     1.0000 0.03630  0.54310  0.18890  Biso   1.000  C
  C396     1.0000 0.06670  0.54810  0.17050  Biso   1.000  C
  C397     1.0000 0.55750  0.49330  0.66250  Biso   1.000  C
  C398     1.0000 0.59430  0.48350  0.64610  Biso   1.000  C
  C399     1.0000 0.61420  0.48180  0.65960  Biso   1.000  C
  C400     1.0000 0.67770  0.47070  0.72970  Biso   1.000  C
  C401     1.0000 0.69650  0.46710  0.74550  Biso   1.000  C
  C402     1.0000 0.76830  0.45690  0.81110  Biso   1.000  C
  C403     1.0000 0.78530  0.45190  0.82950  Biso   1.000  C
  C404     1.0000 0.49330  0.55750  0.28670  Biso   1.000  C
  C405     1.0000 0.48350  0.59430  0.27610  Biso   1.000  C
  C406     1.0000 0.48180  0.61420  0.24440  Biso   1.000  C
  C407     1.0000 0.47070  0.67770  0.12190  Biso   1.000  C
  C408     1.0000 0.46710  0.69650  0.09090  Biso   1.000  C
  C409     1.0000 0.45690  0.76830  0.96370  Biso   1.000  C
  C410     1.0000 0.45190  0.78530  0.93330  Biso   1.000  C
  C411     1.0000 0.28670  0.66250  0.49330  Biso   1.000  C
  C412     1.0000 0.27610  0.64610  0.48350  Biso   1.000  C
  C413     1.0000 0.24440  0.65960  0.48180  Biso   1.000  C
  C414     1.0000 0.12190  0.72970  0.47070  Biso   1.000  C
  C415     1.0000 0.09090  0.74550  0.46710  Biso   1.000  C
  C416     1.0000 0.96370  0.81110  0.45690  Biso   1.000  C
  C417     1.0000 0.93330  0.82950  0.45190  Biso   1.000  C
  C418     1.0000 0.66250  0.28670  0.55750  Biso   1.000  C
  C419     1.0000 0.64610  0.27610  0.59430  Biso   1.000  C
  C420     1.0000 0.65960  0.24440  0.61420  Biso   1.000  C
  C421     1.0000 0.72970  0.12190  0.67770  Biso   1.000  C
  C422     1.0000 0.74550  0.09090  0.69650  Biso   1.000  C
  C423     1.0000 0.81110  0.96370  0.76830  Biso   1.000  C
  C424     1.0000 0.82950  0.93330  0.78530  Biso   1.000  C
  C425     1.0000 0.66250  0.49330  0.28670  Biso   1.000  C
  C426     1.0000 0.64610  0.48350  0.27610  Biso   1.000  C
  C427     1.0000 0.65960  0.48180  0.24440  Biso   1.000  C
  C428     1.0000 0.72970  0.47070  0.12190  Biso   1.000  C
  C429     1.0000 0.74550  0.46710  0.09090  Biso   1.000  C
  C430     1.0000 0.81110  0.45690  0.96370  Biso   1.000  C
  C431     1.0000 0.82950  0.45190  0.93330  Biso   1.000  C
  C432     1.0000 0.28670  0.55750  0.66250  Biso   1.000  C
  C433     1.0000 0.27610  0.59430  0.64610  Biso   1.000  C
  C434     1.0000 0.24440  0.61420  0.65960  Biso   1.000  C
  C435     1.0000 0.12190  0.67770  0.72970  Biso   1.000  C
  C436     1.0000 0.09090  0.69650  0.74550  Biso   1.000  C
  C437     1.0000 0.96370  0.76830  0.81110  Biso   1.000  C
  C438     1.0000 0.93330  0.78530  0.82950  Biso   1.000  C
  C439     1.0000 0.49330  0.66250  0.55750  Biso   1.000  C
  C440     1.0000 0.48350  0.64610  0.59430  Biso   1.000  C
  C441     1.0000 0.48180  0.65960  0.61420  Biso   1.000  C
  C442     1.0000 0.47070  0.72970  0.67770  Biso   1.000  C
  C443     1.0000 0.46710  0.74550  0.69650  Biso   1.000  C
  C444     1.0000 0.45690  0.81110  0.76830  Biso   1.000  C
  C445     1.0000 0.45190  0.82950  0.78530  Biso   1.000  C
  C446     1.0000 0.55750  0.28670  0.49330  Biso   1.000  C
  C447     1.0000 0.59430  0.27610  0.48350  Biso   1.000  C
  C448     1.0000 0.61420  0.24440  0.48180  Biso   1.000  C
  C449     1.0000 0.67770  0.12190  0.47070  Biso   1.000  C
  C450     1.0000 0.69650  0.09090  0.46710  Biso   1.000  C
  C451     1.0000 0.76830  0.96370  0.45690  Biso   1.000  C
  C452     1.0000 0.78530  0.93330  0.45190  Biso   1.000  C
  C453     1.0000 0.28670  0.49330  0.55750  Biso   1.000  C
  C454     1.0000 0.27610  0.48350  0.59430  Biso   1.000  C
  C455     1.0000 0.24440  0.48180  0.61420  Biso   1.000  C
  C456     1.0000 0.12190  0.47070  0.67770  Biso   1.000  C
  C457     1.0000 0.09090  0.46710  0.69650  Biso   1.000  C
  C458     1.0000 0.96370  0.45690  0.76830  Biso   1.000  C
  C459     1.0000 0.93330  0.45190  0.78530  Biso   1.000  C
  C460     1.0000 0.66250  0.55750  0.49330  Biso   1.000  C
  C461     1.0000 0.64610  0.59430  0.48350  Biso   1.000  C
  C462     1.0000 0.65960  0.61420  0.48180  Biso   1.000  C
  C463     1.0000 0.72970  0.67770  0.47070  Biso   1.000  C
  C464     1.0000 0.74550  0.69650  0.46710  Biso   1.000  C
  C465     1.0000 0.81110  0.76830  0.45690  Biso   1.000  C
  C466     1.0000 0.82950  0.78530  0.45190  Biso   1.000  C
  C467     1.0000 0.55750  0.66250  0.28670  Biso   1.000  C
  C468     1.0000 0.59430  0.64610  0.27610  Biso   1.000  C
  C469     1.0000 0.61420  0.65960  0.24440  Biso   1.000  C
  C470     1.0000 0.67770  0.72970  0.12190  Biso   1.000  C
  C471     1.0000 0.69650  0.74550  0.09090  Biso   1.000  C
  C472     1.0000 0.76830  0.81110  0.96370  Biso   1.000  C
  C473     1.0000 0.78530  0.82950  0.93330  Biso   1.000  C
  C474     1.0000 0.49330  0.28670  0.66250  Biso   1.000  C
  C475     1.0000 0.48350  0.27610  0.64610  Biso   1.000  C
  C476     1.0000 0.48180  0.24440  0.65960  Biso   1.000  C
  C477     1.0000 0.47070  0.12190  0.72970  Biso   1.000  C
  C478     1.0000 0.46710  0.09090  0.74550  Biso   1.000  C
  C479     1.0000 0.45690  0.96370  0.81110  Biso   1.000  C
  C480     1.0000 0.45190  0.93330  0.82950  Biso   1.000  C
  C481     1.0000 0.49330  0.55750  0.66250  Biso   1.000  C
  C482     1.0000 0.48350  0.59430  0.64610  Biso   1.000  C
  C483     1.0000 0.48180  0.61420  0.65960  Biso   1.000  C
  C484     1.0000 0.47070  0.67770  0.72970  Biso   1.000  C
  C485     1.0000 0.46710  0.69650  0.74550  Biso   1.000  C
  C486     1.0000 0.45690  0.76830  0.81110  Biso   1.000  C
  C487     1.0000 0.45190  0.78530  0.82950  Biso   1.000  C
  C488     1.0000 0.55750  0.49330  0.28670  Biso   1.000  C
  C489     1.0000 0.59430  0.48350  0.27610  Biso   1.000  C
  C490     1.0000 0.61420  0.48180  0.24440  Biso   1.000  C
  C491     1.0000 0.67770  0.47070  0.12190  Biso   1.000  C
  C492     1.0000 0.69650  0.46710  0.09090  Biso   1.000  C
  C493     1.0000 0.76830  0.45690  0.96370  Biso   1.000  C
  C494     1.0000 0.78530  0.45190  0.93330  Biso   1.000  C
  C495     1.0000 0.66250  0.28670  0.49330  Biso   1.000  C
  C496     1.0000 0.64610  0.27610  0.48350  Biso   1.000  C
  C497     1.0000 0.65960  0.24440  0.48180  Biso   1.000  C
  C498     1.0000 0.72970  0.12190  0.47070  Biso   1.000  C
  C499     1.0000 0.74550  0.09090  0.46710  Biso   1.000  C
  C500     1.0000 0.81110  0.96370  0.45690  Biso   1.000  C
  C501     1.0000 0.82950  0.93330  0.45190  Biso   1.000  C
  C502     1.0000 0.28670  0.66250  0.55750  Biso   1.000  C
  C503     1.0000 0.27610  0.64610  0.59430  Biso   1.000  C
  C504     1.0000 0.24440  0.65960  0.61420  Biso   1.000  C
  C505     1.0000 0.12190  0.72970  0.67770  Biso   1.000  C
  C506     1.0000 0.09090  0.74550  0.69650  Biso   1.000  C
  C507     1.0000 0.96370  0.81110  0.76830  Biso   1.000  C
  C508     1.0000 0.93330  0.82950  0.78530  Biso   1.000  C
  C509     1.0000 0.49330  0.66250  0.28670  Biso   1.000  C
  C510     1.0000 0.48350  0.64610  0.27610  Biso   1.000  C
  C511     1.0000 0.48180  0.65960  0.24440  Biso   1.000  C
  C512     1.0000 0.47070  0.72970  0.12190  Biso   1.000  C
  C513     1.0000 0.46710  0.74550  0.09090  Biso   1.000  C
  C514     1.0000 0.45690  0.81110  0.96370  Biso   1.000  C
  C515     1.0000 0.45190  0.82950  0.93330  Biso   1.000  C
  C516     1.0000 0.55750  0.28670  0.66250  Biso   1.000  C
  C517     1.0000 0.59430  0.27610  0.64610  Biso   1.000  C
  C518     1.0000 0.61420  0.24440  0.65960  Biso   1.000  C
  C519     1.0000 0.67770  0.12190  0.72970  Biso   1.000  C
  C520     1.0000 0.69650  0.09090  0.74550  Biso   1.000  C
  C521     1.0000 0.76830  0.96370  0.81110  Biso   1.000  C
  C522     1.0000 0.78530  0.93330  0.82950  Biso   1.000  C
  C523     1.0000 0.66250  0.49330  0.55750  Biso   1.000  C
  C524     1.0000 0.64610  0.48350  0.59430  Biso   1.000  C
  C525     1.0000 0.65960  0.48180  0.61420  Biso   1.000  C
  C526     1.0000 0.72970  0.47070  0.67770  Biso   1.000  C
  C527     1.0000 0.74550  0.46710  0.69650  Biso   1.000  C
  C528     1.0000 0.81110  0.45690  0.76830  Biso   1.000  C
  C529     1.0000 0.82950  0.45190  0.78530  Biso   1.000  C
  C530     1.0000 0.28670  0.55750  0.49330  Biso   1.000  C
  C531     1.0000 0.27610  0.59430  0.48350  Biso   1.000  C
  C532     1.0000 0.24440  0.61420  0.48180  Biso   1.000  C
  C533     1.0000 0.12190  0.67770  0.47070  Biso   1.000  C
  C534     1.0000 0.09090  0.69650  0.46710  Biso   1.000  C
  C535     1.0000 0.96370  0.76830  0.45690  Biso   1.000  C
  C536     1.0000 0.93330  0.78530  0.45190  Biso   1.000  C
  C537     1.0000 0.49330  0.28670  0.55750  Biso   1.000  C
  C538     1.0000 0.48350  0.27610  0.59430  Biso   1.000  C
  C539     1.0000 0.48180  0.24440  0.61420  Biso   1.000  C
  C540     1.0000 0.47070  0.12190  0.67770  Biso   1.000  C
  C541     1.0000 0.46710  0.09090  0.69650  Biso   1.000  C
  C542     1.0000 0.45690  0.96370  0.76830  Biso   1.000  C
  C543     1.0000 0.45190  0.93330  0.78530  Biso   1.000  C
  C544     1.0000 0.55750  0.66250  0.49330  Biso   1.000  C
  C545     1.0000 0.59430  0.64610  0.48350  Biso   1.000  C
  C546     1.0000 0.61420  0.65960  0.48180  Biso   1.000  C
  C547     1.0000 0.67770  0.72970  0.47070  Biso   1.000  C
  C548     1.0000 0.69650  0.74550  0.46710  Biso   1.000  C
  C549     1.0000 0.76830  0.81110  0.45690  Biso   1.000  C
  C550     1.0000 0.78530  0.82950  0.45190  Biso   1.000  C
  C551     1.0000 0.66250  0.55750  0.28670  Biso   1.000  C
  C552     1.0000 0.64610  0.59430  0.27610  Biso   1.000  C
  C553     1.0000 0.65960  0.61420  0.24440  Biso   1.000  C
  C554     1.0000 0.72970  0.67770  0.12190  Biso   1.000  C
  C555     1.0000 0.74550  0.69650  0.09090  Biso   1.000  C
  C556     1.0000 0.81110  0.76830  0.96370  Biso   1.000  C
  C557     1.0000 0.82950  0.78530  0.93330  Biso   1.000  C
  C558     1.0000 0.28670  0.49330  0.66250  Biso   1.000  C
  C559     1.0000 0.27610  0.48350  0.64610  Biso   1.000  C
  C560     1.0000 0.24440  0.48180  0.65960  Biso   1.000  C
  C561     1.0000 0.12190  0.47070  0.72970  Biso   1.000  C
  C562     1.0000 0.09090  0.46710  0.74550  Biso   1.000  C
  C563     1.0000 0.96370  0.45690  0.81110  Biso   1.000  C
  C564     1.0000 0.93330  0.45190  0.82950  Biso   1.000  C
  C565     1.0000 0.44250  0.50670  0.33750  Biso   1.000  C
  C566     1.0000 0.40570  0.51650  0.35390  Biso   1.000  C
  C567     1.0000 0.38580  0.51820  0.34040  Biso   1.000  C
  C568     1.0000 0.32230  0.52930  0.27030  Biso   1.000  C
  C569     1.0000 0.30350  0.53290  0.25450  Biso   1.000  C
  C570     1.0000 0.23170  0.54310  0.18890  Biso   1.000  C
  C571     1.0000 0.21470  0.54810  0.17050  Biso   1.000  C
  C572     1.0000 0.50670  0.44250  0.71330  Biso   1.000  C
  C573     1.0000 0.51650  0.40570  0.72390  Biso   1.000  C
  C574     1.0000 0.51820  0.38580  0.75560  Biso   1.000  C
  C575     1.0000 0.52930  0.32230  0.87810  Biso   1.000  C
  C576     1.0000 0.53290  0.30350  0.90910  Biso   1.000  C
  C577     1.0000 0.54310  0.23170  0.03630  Biso   1.000  C
  C578     1.0000 0.54810  0.21470  0.06670  Biso   1.000  C
  C579     1.0000 0.71330  0.33750  0.50670  Biso   1.000  C
  C580     1.0000 0.72390  0.35390  0.51650  Biso   1.000  C
  C581     1.0000 0.75560  0.34040  0.51820  Biso   1.000  C
  C582     1.0000 0.87810  0.27030  0.52930  Biso   1.000  C
  C583     1.0000 0.90910  0.25450  0.53290  Biso   1.000  C
  C584     1.0000 0.03630  0.18890  0.54310  Biso   1.000  C
  C585     1.0000 0.06670  0.17050  0.54810  Biso   1.000  C
  C586     1.0000 0.33750  0.71330  0.44250  Biso   1.000  C
  C587     1.0000 0.35390  0.72390  0.40570  Biso   1.000  C
  C588     1.0000 0.34040  0.75560  0.38580  Biso   1.000  C
  C589     1.0000 0.27030  0.87810  0.32230  Biso   1.000  C
  C590     1.0000 0.25450  0.90910  0.30350  Biso   1.000  C
  C591     1.0000 0.18890  0.03630  0.23170  Biso   1.000  C
  C592     1.0000 0.17050  0.06670  0.21470  Biso   1.000  C
  C593     1.0000 0.33750  0.50670  0.71330  Biso   1.000  C
  C594     1.0000 0.35390  0.51650  0.72390  Biso   1.000  C
  C595     1.0000 0.34040  0.51820  0.75560  Biso   1.000  C
  C596     1.0000 0.27030  0.52930  0.87810  Biso   1.000  C
  C597     1.0000 0.25450  0.53290  0.90910  Biso   1.000  C
  C598     1.0000 0.18890  0.54310  0.03630  Biso   1.000  C
  C599     1.0000 0.17050  0.54810  0.06670  Biso   1.000  C
  C600     1.0000 0.71330  0.44250  0.33750  Biso   1.000  C
  C601     1.0000 0.72390  0.40570  0.35390  Biso   1.000  C
  C602     1.0000 0.75560  0.38580  0.34040  Biso   1.000  C
  C603     1.0000 0.87810  0.32230  0.27030  Biso   1.000  C
  C604     1.0000 0.90910  0.30350  0.25450  Biso   1.000  C
  C605     1.0000 0.03630  0.23170  0.18890  Biso   1.000  C
  C606     1.0000 0.06670  0.21470  0.17050  Biso   1.000  C
  C607     1.0000 0.50670  0.33750  0.44250  Biso   1.000  C
  C608     1.0000 0.51650  0.35390  0.40570  Biso   1.000  C
  C609     1.0000 0.51820  0.34040  0.38580  Biso   1.000  C
  C610     1.0000 0.52930  0.27030  0.32230  Biso   1.000  C
  C611     1.0000 0.53290  0.25450  0.30350  Biso   1.000  C
  C612     1.0000 0.54310  0.18890  0.23170  Biso   1.000  C
  C613     1.0000 0.54810  0.17050  0.21470  Biso   1.000  C
  C614     1.0000 0.44250  0.71330  0.50670  Biso   1.000  C
  C615     1.0000 0.40570  0.72390  0.51650  Biso   1.000  C
  C616     1.0000 0.38580  0.75560  0.51820  Biso   1.000  C
  C617     1.0000 0.32230  0.87810  0.52930  Biso   1.000  C
  C618     1.0000 0.30350  0.90910  0.53290  Biso   1.000  C
  C619     1.0000 0.23170  0.03630  0.54310  Biso   1.000  C
  C620     1.0000 0.21470  0.06670  0.54810  Biso   1.000  C
  C621     1.0000 0.71330  0.50670  0.44250  Biso   1.000  C
  C622     1.0000 0.72390  0.51650  0.40570  Biso   1.000  C
  C623     1.0000 0.75560  0.51820  0.38580  Biso   1.000  C
  C624     1.0000 0.87810  0.52930  0.32230  Biso   1.000  C
  C625     1.0000 0.90910  0.53290  0.30350  Biso   1.000  C
  C626     1.0000 0.03630  0.54310  0.23170  Biso   1.000  C
  C627     1.0000 0.06670  0.54810  0.21470  Biso   1.000  C
  C628     1.0000 0.33750  0.44250  0.50670  Biso   1.000  C
  C629     1.0000 0.35390  0.40570  0.51650  Biso   1.000  C
  C630     1.0000 0.34040  0.38580  0.51820  Biso   1.000  C
  C631     1.0000 0.27030  0.32230  0.52930  Biso   1.000  C
  C632     1.0000 0.25450  0.30350  0.53290  Biso   1.000  C
  C633     1.0000 0.18890  0.23170  0.54310  Biso   1.000  C
  C634     1.0000 0.17050  0.21470  0.54810  Biso   1.000  C
  C635     1.0000 0.44250  0.33750  0.71330  Biso   1.000  C
  C636     1.0000 0.40570  0.35390  0.72390  Biso   1.000  C
  C637     1.0000 0.38580  0.34040  0.75560  Biso   1.000  C
  C638     1.0000 0.32230  0.27030  0.87810  Biso   1.000  C
  C639     1.0000 0.30350  0.25450  0.90910  Biso   1.000  C
  C640     1.0000 0.23170  0.18890  0.03630  Biso   1.000  C
  C641     1.0000 0.21470  0.17050  0.06670  Biso   1.000  C
  C642     1.0000 0.50670  0.71330  0.33750  Biso   1.000  C
  C643     1.0000 0.51650  0.72390  0.35390  Biso   1.000  C
  C644     1.0000 0.51820  0.75560  0.34040  Biso   1.000  C
  C645     1.0000 0.52930  0.87810  0.27030  Biso   1.000  C
  C646     1.0000 0.53290  0.90910  0.25450  Biso   1.000  C
  C647     1.0000 0.54310  0.03630  0.18890  Biso   1.000  C
  C648     1.0000 0.54810  0.06670  0.17050  Biso   1.000  C
  C649     1.0000 0.51480  0.38660  0.38660  Biso   1.000  C
  C650     1.0000 0.52300  0.35200  0.35200  Biso   1.000  C
  C651     1.0000 0.52800  0.33360  0.33360  Biso   1.000  C
  C652     1.0000 0.53330  0.31790  0.31790  Biso   1.000  C
  C653     1.0000 0.53190  0.30150  0.30150  Biso   1.000  C
  C654     1.0000 0.53700  0.27000  0.27000  Biso   1.000  C
  C655     1.0000 0.54160  0.25180  0.25180  Biso   1.000  C
  C656     1.0000 0.53860  0.23860  0.23860  Biso   1.000  C
  C657     1.0000 0.54620  0.21960  0.21960  Biso   1.000  C
  C658     1.0000 0.55110  0.18170  0.18170  Biso   1.000  C
  C659     1.0000 0.55600  0.16340  0.16340  Biso   1.000  C
  C660     1.0000 0.38660  0.51480  0.71200  Biso   1.000  C
  C661     1.0000 0.35200  0.52300  0.77300  Biso   1.000  C
  C662     1.0000 0.33360  0.52800  0.80480  Biso   1.000  C
  C663     1.0000 0.31790  0.53330  0.83090  Biso   1.000  C
  C664     1.0000 0.30150  0.53190  0.86510  Biso   1.000  C
  C665     1.0000 0.27000  0.53700  0.92300  Biso   1.000  C
  C666     1.0000 0.25180  0.54160  0.95480  Biso   1.000  C
  C667     1.0000 0.23860  0.53860  0.98420  Biso   1.000  C
  C668     1.0000 0.21960  0.54620  0.01460  Biso   1.000  C
  C669     1.0000 0.18170  0.55110  0.08550  Biso   1.000  C
  C670     1.0000 0.16340  0.55600  0.11720  Biso   1.000  C
  C671     1.0000 0.38660  0.71200  0.51480  Biso   1.000  C
  C672     1.0000 0.35200  0.77300  0.52300  Biso   1.000  C
  C673     1.0000 0.33360  0.80480  0.52800  Biso   1.000  C
  C674     1.0000 0.31790  0.83090  0.53330  Biso   1.000  C
  C675     1.0000 0.30150  0.86510  0.53190  Biso   1.000  C
  C676     1.0000 0.27000  0.92300  0.53700  Biso   1.000  C
  C677     1.0000 0.25180  0.95480  0.54160  Biso   1.000  C
  C678     1.0000 0.23860  0.98420  0.53860  Biso   1.000  C
  C679     1.0000 0.21960  0.01460  0.54620  Biso   1.000  C
  C680     1.0000 0.18170  0.08550  0.55110  Biso   1.000  C
  C681     1.0000 0.16340  0.11720  0.55600  Biso   1.000  C
  C682     1.0000 0.71200  0.38660  0.38660  Biso   1.000  C
  C683     1.0000 0.77300  0.35200  0.35200  Biso   1.000  C
  C684     1.0000 0.80480  0.33360  0.33360  Biso   1.000  C
  C685     1.0000 0.83090  0.31790  0.31790  Biso   1.000  C
  C686     1.0000 0.86510  0.30150  0.30150  Biso   1.000  C
  C687     1.0000 0.92300  0.27000  0.27000  Biso   1.000  C
  C688     1.0000 0.95480  0.25180  0.25180  Biso   1.000  C
  C689     1.0000 0.98420  0.23860  0.23860  Biso   1.000  C
  C690     1.0000 0.01460  0.21960  0.21960  Biso   1.000  C
  C691     1.0000 0.08550  0.18170  0.18170  Biso   1.000  C
  C692     1.0000 0.11720  0.16340  0.16340  Biso   1.000  C
  C693     1.0000 0.51480  0.38660  0.71200  Biso   1.000  C
  C694     1.0000 0.52300  0.35200  0.77300  Biso   1.000  C
  C695     1.0000 0.52800  0.33360  0.80480  Biso   1.000  C
  C696     1.0000 0.53330  0.31790  0.83090  Biso   1.000  C
  C697     1.0000 0.53190  0.30150  0.86510  Biso   1.000  C
  C698     1.0000 0.53700  0.27000  0.92300  Biso   1.000  C
  C699     1.0000 0.54160  0.25180  0.95480  Biso   1.000  C
  C700     1.0000 0.53860  0.23860  0.98420  Biso   1.000  C
  C701     1.0000 0.54620  0.21960  0.01460  Biso   1.000  C
  C702     1.0000 0.55110  0.18170  0.08550  Biso   1.000  C
  C703     1.0000 0.55600  0.16340  0.11720  Biso   1.000  C
  C704     1.0000 0.38660  0.71200  0.38660  Biso   1.000  C
  C705     1.0000 0.35200  0.77300  0.35200  Biso   1.000  C
  C706     1.0000 0.33360  0.80480  0.33360  Biso   1.000  C
  C707     1.0000 0.31790  0.83090  0.31790  Biso   1.000  C
  C708     1.0000 0.30150  0.86510  0.30150  Biso   1.000  C
  C709     1.0000 0.27000  0.92300  0.27000  Biso   1.000  C
  C710     1.0000 0.25180  0.95480  0.25180  Biso   1.000  C
  C711     1.0000 0.23860  0.98420  0.23860  Biso   1.000  C
  C712     1.0000 0.21960  0.01460  0.21960  Biso   1.000  C
  C713     1.0000 0.18170  0.08550  0.18170  Biso   1.000  C
  C714     1.0000 0.16340  0.11720  0.16340  Biso   1.000  C
  C715     1.0000 0.38660  0.51480  0.38660  Biso   1.000  C
  C716     1.0000 0.35200  0.52300  0.35200  Biso   1.000  C
  C717     1.0000 0.33360  0.52800  0.33360  Biso   1.000  C
  C718     1.0000 0.31790  0.53330  0.31790  Biso   1.000  C
  C719     1.0000 0.30150  0.53190  0.30150  Biso   1.000  C
  C720     1.0000 0.27000  0.53700  0.27000  Biso   1.000  C
  C721     1.0000 0.25180  0.54160  0.25180  Biso   1.000  C
  C722     1.0000 0.23860  0.53860  0.23860  Biso   1.000  C
  C723     1.0000 0.21960  0.54620  0.21960  Biso   1.000  C
  C724     1.0000 0.18170  0.55110  0.18170  Biso   1.000  C
  C725     1.0000 0.16340  0.55600  0.16340  Biso   1.000  C
  C726     1.0000 0.71200  0.38660  0.51480  Biso   1.000  C
  C727     1.0000 0.77300  0.35200  0.52300  Biso   1.000  C
  C728     1.0000 0.80480  0.33360  0.52800  Biso   1.000  C
  C729     1.0000 0.83090  0.31790  0.53330  Biso   1.000  C
  C730     1.0000 0.86510  0.30150  0.53190  Biso   1.000  C
  C731     1.0000 0.92300  0.27000  0.53700  Biso   1.000  C
  C732     1.0000 0.95480  0.25180  0.54160  Biso   1.000  C
  C733     1.0000 0.98420  0.23860  0.53860  Biso   1.000  C
  C734     1.0000 0.01460  0.21960  0.54620  Biso   1.000  C
  C735     1.0000 0.08550  0.18170  0.55110  Biso   1.000  C
  C736     1.0000 0.11720  0.16340  0.55600  Biso   1.000  C
  C737     1.0000 0.51480  0.71200  0.38660  Biso   1.000  C
  C738     1.0000 0.52300  0.77300  0.35200  Biso   1.000  C
  C739     1.0000 0.52800  0.80480  0.33360  Biso   1.000  C
  C740     1.0000 0.53330  0.83090  0.31790  Biso   1.000  C
  C741     1.0000 0.53190  0.86510  0.30150  Biso   1.000  C
  C742     1.0000 0.53700  0.92300  0.27000  Biso   1.000  C
  C743     1.0000 0.54160  0.95480  0.25180  Biso   1.000  C
  C744     1.0000 0.53860  0.98420  0.23860  Biso   1.000  C
  C745     1.0000 0.54620  0.01460  0.21960  Biso   1.000  C
  C746     1.0000 0.55110  0.08550  0.18170  Biso   1.000  C
  C747     1.0000 0.55600  0.11720  0.16340  Biso   1.000  C
  C748     1.0000 0.38660  0.38660  0.51480  Biso   1.000  C
  C749     1.0000 0.35200  0.35200  0.52300  Biso   1.000  C
  C750     1.0000 0.33360  0.33360  0.52800  Biso   1.000  C
  C751     1.0000 0.31790  0.31790  0.53330  Biso   1.000  C
  C752     1.0000 0.30150  0.30150  0.53190  Biso   1.000  C
  C753     1.0000 0.27000  0.27000  0.53700  Biso   1.000  C
  C754     1.0000 0.25180  0.25180  0.54160  Biso   1.000  C
  C755     1.0000 0.23860  0.23860  0.53860  Biso   1.000  C
  C756     1.0000 0.21960  0.21960  0.54620  Biso   1.000  C
  C757     1.0000 0.18170  0.18170  0.55110  Biso   1.000  C
  C758     1.0000 0.16340  0.16340  0.55600  Biso   1.000  C
  C759     1.0000 0.38660  0.38660  0.71200  Biso   1.000  C
  C760     1.0000 0.35200  0.35200  0.77300  Biso   1.000  C
  C761     1.0000 0.33360  0.33360  0.80480  Biso   1.000  C
  C762     1.0000 0.31790  0.31790  0.83090  Biso   1.000  C
  C763     1.0000 0.30150  0.30150  0.86510  Biso   1.000  C
  C764     1.0000 0.27000  0.27000  0.92300  Biso   1.000  C
  C765     1.0000 0.25180  0.25180  0.95480  Biso   1.000  C
  C766     1.0000 0.23860  0.23860  0.98420  Biso   1.000  C
  C767     1.0000 0.21960  0.21960  0.01460  Biso   1.000  C
  C768     1.0000 0.18170  0.18170  0.08550  Biso   1.000  C
  C769     1.0000 0.16340  0.16340  0.11720  Biso   1.000  C
  C770     1.0000 0.71200  0.51480  0.38660  Biso   1.000  C
  C771     1.0000 0.77300  0.52300  0.35200  Biso   1.000  C
  C772     1.0000 0.80480  0.52800  0.33360  Biso   1.000  C
  C773     1.0000 0.83090  0.53330  0.31790  Biso   1.000  C
  C774     1.0000 0.86510  0.53190  0.30150  Biso   1.000  C
  C775     1.0000 0.92300  0.53700  0.27000  Biso   1.000  C
  C776     1.0000 0.95480  0.54160  0.25180  Biso   1.000  C
  C777     1.0000 0.98420  0.53860  0.23860  Biso   1.000  C
  C778     1.0000 0.01460  0.54620  0.21960  Biso   1.000  C
  C779     1.0000 0.08550  0.55110  0.18170  Biso   1.000  C
  C780     1.0000 0.11720  0.55600  0.16340  Biso   1.000  C
  C781     1.0000 0.61340  0.48520  0.61340  Biso   1.000  C
  C782     1.0000 0.64800  0.47700  0.64800  Biso   1.000  C
  C783     1.0000 0.66640  0.47200  0.66640  Biso   1.000  C
  C784     1.0000 0.68210  0.46670  0.68210  Biso   1.000  C
  C785     1.0000 0.69850  0.46810  0.69850  Biso   1.000  C
  C786     1.0000 0.73000  0.46300  0.73000  Biso   1.000  C
  C787     1.0000 0.74820  0.45840  0.74820  Biso   1.000  C
  C788     1.0000 0.76140  0.46140  0.76140  Biso   1.000  C
  C789     1.0000 0.78040  0.45380  0.78040  Biso   1.000  C
  C790     1.0000 0.81830  0.44890  0.81830  Biso   1.000  C
  C791     1.0000 0.83660  0.44400  0.83660  Biso   1.000  C
  C792     1.0000 0.48520  0.61340  0.28800  Biso   1.000  C
  C793     1.0000 0.47700  0.64800  0.22700  Biso   1.000  C
  C794     1.0000 0.47200  0.66640  0.19520  Biso   1.000  C
  C795     1.0000 0.46670  0.68210  0.16910  Biso   1.000  C
  C796     1.0000 0.46810  0.69850  0.13490  Biso   1.000  C
  C797     1.0000 0.46300  0.73000  0.07700  Biso   1.000  C
  C798     1.0000 0.45840  0.74820  0.04520  Biso   1.000  C
  C799     1.0000 0.46140  0.76140  0.01580  Biso   1.000  C
  C800     1.0000 0.45380  0.78040  0.98540  Biso   1.000  C
  C801     1.0000 0.44890  0.81830  0.91450  Biso   1.000  C
  C802     1.0000 0.44400  0.83660  0.88280  Biso   1.000  C
  C803     1.0000 0.28800  0.61340  0.48520  Biso   1.000  C
  C804     1.0000 0.22700  0.64800  0.47700  Biso   1.000  C
  C805     1.0000 0.19520  0.66640  0.47200  Biso   1.000  C
  C806     1.0000 0.16910  0.68210  0.46670  Biso   1.000  C
  C807     1.0000 0.13490  0.69850  0.46810  Biso   1.000  C
  C808     1.0000 0.07700  0.73000  0.46300  Biso   1.000  C
  C809     1.0000 0.04520  0.74820  0.45840  Biso   1.000  C
  C810     1.0000 0.01580  0.76140  0.46140  Biso   1.000  C
  C811     1.0000 0.98540  0.78040  0.45380  Biso   1.000  C
  C812     1.0000 0.91450  0.81830  0.44890  Biso   1.000  C
  C813     1.0000 0.88280  0.83660  0.44400  Biso   1.000  C
  C814     1.0000 0.61340  0.28800  0.61340  Biso   1.000  C
  C815     1.0000 0.64800  0.22700  0.64800  Biso   1.000  C
  C816     1.0000 0.66640  0.19520  0.66640  Biso   1.000  C
  C817     1.0000 0.68210  0.16910  0.68210  Biso   1.000  C
  C818     1.0000 0.69850  0.13490  0.69850  Biso   1.000  C
  C819     1.0000 0.73000  0.07700  0.73000  Biso   1.000  C
  C820     1.0000 0.74820  0.04520  0.74820  Biso   1.000  C
  C821     1.0000 0.76140  0.01580  0.76140  Biso   1.000  C
  C822     1.0000 0.78040  0.98540  0.78040  Biso   1.000  C
  C823     1.0000 0.81830  0.91450  0.81830  Biso   1.000  C
  C824     1.0000 0.83660  0.88280  0.83660  Biso   1.000  C
  C825     1.0000 0.61340  0.48520  0.28800  Biso   1.000  C
  C826     1.0000 0.64800  0.47700  0.22700  Biso   1.000  C
  C827     1.0000 0.66640  0.47200  0.19520  Biso   1.000  C
  C828     1.0000 0.68210  0.46670  0.16910  Biso   1.000  C
  C829     1.0000 0.69850  0.46810  0.13490  Biso   1.000  C
  C830     1.0000 0.73000  0.46300  0.07700  Biso   1.000  C
  C831     1.0000 0.74820  0.45840  0.04520  Biso   1.000  C
  C832     1.0000 0.76140  0.46140  0.01580  Biso   1.000  C
  C833     1.0000 0.78040  0.45380  0.98540  Biso   1.000  C
  C834     1.0000 0.81830  0.44890  0.91450  Biso   1.000  C
  C835     1.0000 0.83660  0.44400  0.88280  Biso   1.000  C
  C836     1.0000 0.28800  0.61340  0.61340  Biso   1.000  C
  C837     1.0000 0.22700  0.64800  0.64800  Biso   1.000  C
  C838     1.0000 0.19520  0.66640  0.66640  Biso   1.000  C
  C839     1.0000 0.16910  0.68210  0.68210  Biso   1.000  C
  C840     1.0000 0.13490  0.69850  0.69850  Biso   1.000  C
  C841     1.0000 0.07700  0.73000  0.73000  Biso   1.000  C
  C842     1.0000 0.04520  0.74820  0.74820  Biso   1.000  C
  C843     1.0000 0.01580  0.76140  0.76140  Biso   1.000  C
  C844     1.0000 0.98540  0.78040  0.78040  Biso   1.000  C
  C845     1.0000 0.91450  0.81830  0.81830  Biso   1.000  C
  C846     1.0000 0.88280  0.83660  0.83660  Biso   1.000  C
  C847     1.0000 0.48520  0.61340  0.61340  Biso   1.000  C
  C848     1.0000 0.47700  0.64800  0.64800  Biso   1.000  C
  C849     1.0000 0.47200  0.66640  0.66640  Biso   1.000  C
  C850     1.0000 0.46670  0.68210  0.68210  Biso   1.000  C
  C851     1.0000 0.46810  0.69850  0.69850  Biso   1.000  C
  C852     1.0000 0.46300  0.73000  0.73000  Biso   1.000  C
  C853     1.0000 0.45840  0.74820  0.74820  Biso   1.000  C
  C854     1.0000 0.46140  0.76140  0.76140  Biso   1.000  C
  C855     1.0000 0.45380  0.78040  0.78040  Biso   1.000  C
  C856     1.0000 0.44890  0.81830  0.81830  Biso   1.000  C
  C857     1.0000 0.44400  0.83660  0.83660  Biso   1.000  C
  C858     1.0000 0.61340  0.28800  0.48520  Biso   1.000  C
  C859     1.0000 0.64800  0.22700  0.47700  Biso   1.000  C
  C860     1.0000 0.66640  0.19520  0.47200  Biso   1.000  C
  C861     1.0000 0.68210  0.16910  0.46670  Biso   1.000  C
  C862     1.0000 0.69850  0.13490  0.46810  Biso   1.000  C
  C863     1.0000 0.73000  0.07700  0.46300  Biso   1.000  C
  C864     1.0000 0.74820  0.04520  0.45840  Biso   1.000  C
  C865     1.0000 0.76140  0.01580  0.46140  Biso   1.000  C
  C866     1.0000 0.78040  0.98540  0.45380  Biso   1.000  C
  C867     1.0000 0.81830  0.91450  0.44890  Biso   1.000  C
  C868     1.0000 0.83660  0.88280  0.44400  Biso   1.000  C
  C869     1.0000 0.28800  0.48520  0.61340  Biso   1.000  C
  C870     1.0000 0.22700  0.47700  0.64800  Biso   1.000  C
  C871     1.0000 0.19520  0.47200  0.66640  Biso   1.000  C
  C872     1.0000 0.16910  0.46670  0.68210  Biso   1.000  C
  C873     1.0000 0.13490  0.46810  0.69850  Biso   1.000  C
  C874     1.0000 0.07700  0.46300  0.73000  Biso   1.000  C
  C875     1.0000 0.04520  0.45840  0.74820  Biso   1.000  C
  C876     1.0000 0.01580  0.46140  0.76140  Biso   1.000  C
  C877     1.0000 0.98540  0.45380  0.78040  Biso   1.000  C
  C878     1.0000 0.91450  0.44890  0.81830  Biso   1.000  C
  C879     1.0000 0.88280  0.44400  0.83660  Biso   1.000  C
  C880     1.0000 0.61340  0.61340  0.48520  Biso   1.000  C
  C881     1.0000 0.64800  0.64800  0.47700  Biso   1.000  C
  C882     1.0000 0.66640  0.66640  0.47200  Biso   1.000  C
  C883     1.0000 0.68210  0.68210  0.46670  Biso   1.000  C
  C884     1.0000 0.69850  0.69850  0.46810  Biso   1.000  C
  C885     1.0000 0.73000  0.73000  0.46300  Biso   1.000  C
  C886     1.0000 0.74820  0.74820  0.45840  Biso   1.000  C
  C887     1.0000 0.76140  0.76140  0.46140  Biso   1.000  C
  C888     1.0000 0.78040  0.78040  0.45380  Biso   1.000  C
  C889     1.0000 0.81830  0.81830  0.44890  Biso   1.000  C
  C890     1.0000 0.83660  0.83660  0.44400  Biso   1.000  C
  C891     1.0000 0.61340  0.61340  0.28800  Biso   1.000  C
  C892     1.0000 0.64800  0.64800  0.22700  Biso   1.000  C
  C893     1.0000 0.66640  0.66640  0.19520  Biso   1.000  C
  C894     1.0000 0.68210  0.68210  0.16910  Biso   1.000  C
  C895     1.0000 0.69850  0.69850  0.13490  Biso   1.000  C
  C896     1.0000 0.73000  0.73000  0.07700  Biso   1.000  C
  C897     1.0000 0.74820  0.74820  0.04520  Biso   1.000  C
  C898     1.0000 0.76140  0.76140  0.01580  Biso   1.000  C
  C899     1.0000 0.78040  0.78040  0.98540  Biso   1.000  C
  C900     1.0000 0.81830  0.81830  0.91450  Biso   1.000  C
  C901     1.0000 0.83660  0.83660  0.88280  Biso   1.000  C
  C902     1.0000 0.48520  0.28800  0.61340  Biso   1.000  C
  C903     1.0000 0.47700  0.22700  0.64800  Biso   1.000  C
  C904     1.0000 0.47200  0.19520  0.66640  Biso   1.000  C
  C905     1.0000 0.46670  0.16910  0.68210  Biso   1.000  C
  C906     1.0000 0.46810  0.13490  0.69850  Biso   1.000  C
  C907     1.0000 0.46300  0.07700  0.73000  Biso   1.000  C
  C908     1.0000 0.45840  0.04520  0.74820  Biso   1.000  C
  C909     1.0000 0.46140  0.01580  0.76140  Biso   1.000  C
  C910     1.0000 0.45380  0.98540  0.78040  Biso   1.000  C
  C911     1.0000 0.44890  0.91450  0.81830  Biso   1.000  C
  C912     1.0000 0.44400  0.88280  0.83660  Biso   1.000  C
  C913     1.0000 0.56030  0.12990  0.17990  Biso   1.000  C
  C914     1.0000 0.12990  0.56030  0.12990  Biso   1.000  C
  C915     1.0000 0.17990  0.12990  0.56030  Biso   1.000  C
  C916     1.0000 0.12990  0.17990  0.12990  Biso   1.000  C
  C917     1.0000 0.56030  0.17990  0.12990  Biso   1.000  C
  C918     1.0000 0.12990  0.12990  0.17990  Biso   1.000  C
  C919     1.0000 0.17990  0.56030  0.12990  Biso   1.000  C
  C920     1.0000 0.12990  0.12990  0.56030  Biso   1.000  C
  C921     1.0000 0.56030  0.12990  0.12990  Biso   1.000  C
  C922     1.0000 0.12990  0.17990  0.56030  Biso   1.000  C
  C923     1.0000 0.17990  0.12990  0.12990  Biso   1.000  C
  C924     1.0000 0.12990  0.56030  0.17990  Biso   1.000  C
  C925     1.0000 0.87010  0.43970  0.82010  Biso   1.000  C
  C926     1.0000 0.43970  0.87010  0.87010  Biso   1.000  C
  C927     1.0000 0.87010  0.82010  0.43970  Biso   1.000  C
  C928     1.0000 0.82010  0.87010  0.87010  Biso   1.000  C
  C929     1.0000 0.82010  0.43970  0.87010  Biso   1.000  C
  C930     1.0000 0.87010  0.87010  0.82010  Biso   1.000  C
  C931     1.0000 0.43970  0.82010  0.87010  Biso   1.000  C
  C932     1.0000 0.87010  0.87010  0.43970  Biso   1.000  C
  C933     1.0000 0.87010  0.43970  0.87010  Biso   1.000  C
  C934     1.0000 0.82010  0.87010  0.43970  Biso   1.000  C
  C935     1.0000 0.87010  0.82010  0.87010  Biso   1.000  C
  C936     1.0000 0.43970  0.87010  0.82010  Biso   1.000  C
  C937     1.0000 0.50770  0.45750  0.30610  Biso   1.000  C
  C938     1.0000 0.50800  0.45720  0.35300  Biso   1.000  C
  C939     1.0000 0.45750  0.50770  0.72870  Biso   1.000  C
  C940     1.0000 0.45720  0.50800  0.68180  Biso   1.000  C
  C941     1.0000 0.30610  0.72870  0.50770  Biso   1.000  C
  C942     1.0000 0.35300  0.68180  0.50800  Biso   1.000  C
  C943     1.0000 0.72870  0.30610  0.45750  Biso   1.000  C
  C944     1.0000 0.68180  0.35300  0.45720  Biso   1.000  C
  C945     1.0000 0.50770  0.30610  0.72870  Biso   1.000  C
  C946     1.0000 0.50800  0.35300  0.68180  Biso   1.000  C
  C947     1.0000 0.45750  0.72870  0.30610  Biso   1.000  C
  C948     1.0000 0.45720  0.68180  0.35300  Biso   1.000  C
  C949     1.0000 0.30610  0.50770  0.45750  Biso   1.000  C
  C950     1.0000 0.35300  0.50800  0.45720  Biso   1.000  C
  C951     1.0000 0.72870  0.45750  0.50770  Biso   1.000  C
  C952     1.0000 0.68180  0.45720  0.50800  Biso   1.000  C
  C953     1.0000 0.50770  0.72870  0.45750  Biso   1.000  C
  C954     1.0000 0.50800  0.68180  0.45720  Biso   1.000  C
  C955     1.0000 0.45750  0.30610  0.50770  Biso   1.000  C
  C956     1.0000 0.45720  0.35300  0.50800  Biso   1.000  C
  C957     1.0000 0.30610  0.45750  0.72870  Biso   1.000  C
  C958     1.0000 0.35300  0.45720  0.68180  Biso   1.000  C
  C959     1.0000 0.72870  0.50770  0.30610  Biso   1.000  C
  C960     1.0000 0.68180  0.50800  0.35300  Biso   1.000  C
  C961     1.0000 0.54250  0.49230  0.69390  Biso   1.000  C
  C962     1.0000 0.54280  0.49200  0.64700  Biso   1.000  C
  C963     1.0000 0.49230  0.54250  0.27130  Biso   1.000  C
  C964     1.0000 0.49200  0.54280  0.31820  Biso   1.000  C
  C965     1.0000 0.27130  0.69390  0.49230  Biso   1.000  C
  C966     1.0000 0.31820  0.64700  0.49200  Biso   1.000  C
  C967     1.0000 0.69390  0.27130  0.54250  Biso   1.000  C
  C968     1.0000 0.64700  0.31820  0.54280  Biso   1.000  C
  C969     1.0000 0.69390  0.49230  0.27130  Biso   1.000  C
  C970     1.0000 0.64700  0.49200  0.31820  Biso   1.000  C
  C971     1.0000 0.27130  0.54250  0.69390  Biso   1.000  C
  C972     1.0000 0.31820  0.54280  0.64700  Biso   1.000  C
  C973     1.0000 0.49230  0.69390  0.54250  Biso   1.000  C
  C974     1.0000 0.49200  0.64700  0.54280  Biso   1.000  C
  C975     1.0000 0.54250  0.27130  0.49230  Biso   1.000  C
  C976     1.0000 0.54280  0.31820  0.49200  Biso   1.000  C
  C977     1.0000 0.27130  0.49230  0.54250  Biso   1.000  C
  C978     1.0000 0.31820  0.49200  0.54280  Biso   1.000  C
  C979     1.0000 0.69390  0.54250  0.49230  Biso   1.000  C
  C980     1.0000 0.64700  0.54280  0.49200  Biso   1.000  C
  C981     1.0000 0.54250  0.69390  0.27130  Biso   1.000  C
  C982     1.0000 0.54280  0.64700  0.31820  Biso   1.000  C
  C983     1.0000 0.49230  0.27130  0.69390  Biso   1.000  C
  C984     1.0000 0.49200  0.31820  0.64700  Biso   1.000  C
  C985     1.0000 0.49230  0.54250  0.69390  Biso   1.000  C
  C986     1.0000 0.49200  0.54280  0.64700  Biso   1.000  C
  C987     1.0000 0.54250  0.49230  0.27130  Biso   1.000  C
  C988     1.0000 0.54280  0.49200  0.31820  Biso   1.000  C
  C989     1.0000 0.69390  0.27130  0.49230  Biso   1.000  C
  C990     1.0000 0.64700  0.31820  0.49200  Biso   1.000  C
  C991     1.0000 0.27130  0.69390  0.54250  Biso   1.000  C
  C992     1.0000 0.31820  0.64700  0.54280  Biso   1.000  C
  C993     1.0000 0.49230  0.69390  0.27130  Biso   1.000  C
  C994     1.0000 0.49200  0.64700  0.31820  Biso   1.000  C
  C995     1.0000 0.54250  0.27130  0.69390  Biso   1.000  C
  C996     1.0000 0.54280  0.31820  0.64700  Biso   1.000  C
  C997     1.0000 0.69390  0.49230  0.54250  Biso   1.000  C
  C998     1.0000 0.64700  0.49200  0.54280  Biso   1.000  C
  C999     1.0000 0.27130  0.54250  0.49230  Biso   1.000  C
  C1000    1.0000 0.31820  0.54280  0.49200  Biso   1.000  C
  C1001    1.0000 0.49230  0.27130  0.54250  Biso   1.000  C
  C1002    1.0000 0.49200  0.31820  0.54280  Biso   1.000  C
  C1003    1.0000 0.54250  0.69390  0.49230  Biso   1.000  C
  C1004    1.0000 0.54280  0.64700  0.49200  Biso   1.000  C
  C1005    1.0000 0.69390  0.54250  0.27130  Biso   1.000  C
  C1006    1.0000 0.64700  0.54280  0.31820  Biso   1.000  C
  C1007    1.0000 0.27130  0.49230  0.69390  Biso   1.000  C
  C1008    1.0000 0.31820  0.49200  0.64700  Biso   1.000  C
  C1009    1.0000 0.45750  0.50770  0.30610  Biso   1.000  C
  C1010    1.0000 0.45720  0.50800  0.35300  Biso   1.000  C
  C1011    1.0000 0.50770  0.45750  0.72870  Biso   1.000  C
  C1012    1.0000 0.50800  0.45720  0.68180  Biso   1.000  C
  C1013    1.0000 0.72870  0.30610  0.50770  Biso   1.000  C
  C1014    1.0000 0.68180  0.35300  0.50800  Biso   1.000  C
  C1015    1.0000 0.30610  0.72870  0.45750  Biso   1.000  C
  C1016    1.0000 0.35300  0.68180  0.45720  Biso   1.000  C
  C1017    1.0000 0.30610  0.50770  0.72870  Biso   1.000  C
  C1018    1.0000 0.35300  0.50800  0.68180  Biso   1.000  C
  C1019    1.0000 0.72870  0.45750  0.30610  Biso   1.000  C
  C1020    1.0000 0.68180  0.45720  0.35300  Biso   1.000  C
  C1021    1.0000 0.50770  0.30610  0.45750  Biso   1.000  C
  C1022    1.0000 0.50800  0.35300  0.45720  Biso   1.000  C
  C1023    1.0000 0.45750  0.72870  0.50770  Biso   1.000  C
  C1024    1.0000 0.45720  0.68180  0.50800  Biso   1.000  C
  C1025    1.0000 0.72870  0.50770  0.45750  Biso   1.000  C
  C1026    1.0000 0.68180  0.50800  0.45720  Biso   1.000  C
  C1027    1.0000 0.30610  0.45750  0.50770  Biso   1.000  C
  C1028    1.0000 0.35300  0.45720  0.50800  Biso   1.000  C
  C1029    1.0000 0.45750  0.30610  0.72870  Biso   1.000  C
  C1030    1.0000 0.45720  0.35300  0.68180  Biso   1.000  C
  C1031    1.0000 0.50770  0.72870  0.30610  Biso   1.000  C
  C1032    1.0000 0.50800  0.68180  0.35300  Biso   1.000  C
  O1       1.0000 0.68003  0.88468  0.55461  Biso   1.000  O
  O2       1.0000 0.72259  0.88468  0.51205  Biso   1.000  O
  O3       1.0000 0.09363  0.88468  0.14101  Biso   1.000  O
  O4       1.0000 0.05107  0.88468  0.18357  Biso   1.000  O
  O5       1.0000 0.88683  0.67788  0.34781  Biso   1.000  O
  O6       1.0000 0.88683  0.72044  0.34781  Biso   1.000  O
  O7       1.0000 0.88683  0.09148  0.34781  Biso   1.000  O
  O8       1.0000 0.88683  0.04892  0.34781  Biso   1.000  O
  O9       1.0000 0.88683  0.09148  0.14101  Biso   1.000  O
  O10      1.0000 0.88683  0.04892  0.18357  Biso   1.000  O
  O11      1.0000 0.88683  0.67788  0.55461  Biso   1.000  O
  O12      1.0000 0.88683  0.72044  0.51205  Biso   1.000  O
  O13      1.0000 0.68003  0.88468  0.34781  Biso   1.000  O
  O14      1.0000 0.72259  0.88468  0.34781  Biso   1.000  O
  O15      1.0000 0.09363  0.88468  0.34781  Biso   1.000  O
  O16      1.0000 0.05107  0.88468  0.34781  Biso   1.000  O
  O17      1.0000 0.09363  0.67788  0.34781  Biso   1.000  O
  O18      1.0000 0.05107  0.72044  0.34781  Biso   1.000  O
  O19      1.0000 0.68003  0.09148  0.34781  Biso   1.000  O
  O20      1.0000 0.72259  0.04892  0.34781  Biso   1.000  O
  O21      1.0000 0.88683  0.88468  0.14101  Biso   1.000  O
  O22      1.0000 0.88683  0.88468  0.18357  Biso   1.000  O
  O23      1.0000 0.88683  0.88468  0.55461  Biso   1.000  O
  O24      1.0000 0.88683  0.88468  0.51205  Biso   1.000  O
  O25      1.0000 0.61913  0.98738  0.52851  Biso   1.000  O
  O26      1.0000 0.51933  0.03918  0.58651  Biso   1.000  O
  O27      1.0000 0.46583  0.07068  0.61521  Biso   1.000  O
  O28      1.0000 0.35733  0.12958  0.66891  Biso   1.000  O
  O29      1.0000 0.31123  0.15788  0.69981  Biso   1.000  O
  O30      1.0000 0.06753  0.86898  0.08011  Biso   1.000  O
  O31      1.0000 0.12553  0.85898  0.98031  Biso   1.000  O
  O32      1.0000 0.15423  0.85228  0.92681  Biso   1.000  O
  O33      1.0000 0.20793  0.84818  0.81831  Biso   1.000  O
  O34      1.0000 0.23883  0.83508  0.77221  Biso   1.000  O
  O35      1.0000 0.98953  0.61698  0.33211  Biso   1.000  O
  O36      1.0000 0.04133  0.51718  0.32211  Biso   1.000  O
  O37      1.0000 0.07283  0.46368  0.31541  Biso   1.000  O
  O38      1.0000 0.13173  0.35518  0.31131  Biso   1.000  O
  O39      1.0000 0.16003  0.30908  0.29821  Biso   1.000  O
  O40      1.0000 0.87113  0.06538  0.45051  Biso   1.000  O
  O41      1.0000 0.86113  0.12338  0.50231  Biso   1.000  O
  O42      1.0000 0.85443  0.15208  0.53381  Biso   1.000  O
  O43      1.0000 0.85033  0.20578  0.59271  Biso   1.000  O
  O44      1.0000 0.83723  0.23668  0.62101  Biso   1.000  O
  O45      1.0000 0.98953  0.06538  0.08011  Biso   1.000  O
  O46      1.0000 0.04133  0.12338  0.98031  Biso   1.000  O
  O47      1.0000 0.07283  0.15208  0.92681  Biso   1.000  O
  O48      1.0000 0.13173  0.20578  0.81831  Biso   1.000  O
  O49      1.0000 0.16003  0.23668  0.77221  Biso   1.000  O
  O50      1.0000 0.87113  0.61698  0.52851  Biso   1.000  O
  O51      1.0000 0.86113  0.51718  0.58651  Biso   1.000  O
  O52      1.0000 0.85443  0.46368  0.61521  Biso   1.000  O
  O53      1.0000 0.85033  0.35518  0.66891  Biso   1.000  O
  O54      1.0000 0.83723  0.30908  0.69981  Biso   1.000  O
  O55      1.0000 0.61913  0.86898  0.45051  Biso   1.000  O
  O56      1.0000 0.51933  0.85898  0.50231  Biso   1.000  O
  O57      1.0000 0.46583  0.85228  0.53381  Biso   1.000  O
  O58      1.0000 0.35733  0.84818  0.59271  Biso   1.000  O
  O59      1.0000 0.31123  0.83508  0.62101  Biso   1.000  O
  O60      1.0000 0.06753  0.98738  0.33211  Biso   1.000  O
  O61      1.0000 0.12553  0.03918  0.32211  Biso   1.000  O
  O62      1.0000 0.15423  0.07068  0.31541  Biso   1.000  O
  O63      1.0000 0.20793  0.12958  0.31131  Biso   1.000  O
  O64      1.0000 0.23883  0.15788  0.29821  Biso   1.000  O
  O65      1.0000 0.06753  0.61698  0.45051  Biso   1.000  O
  O66      1.0000 0.12553  0.51718  0.50231  Biso   1.000  O
  O67      1.0000 0.15423  0.46368  0.53381  Biso   1.000  O
  O68      1.0000 0.20793  0.35518  0.59271  Biso   1.000  O
  O69      1.0000 0.23883  0.30908  0.62101  Biso   1.000  O
  O70      1.0000 0.61913  0.06538  0.33211  Biso   1.000  O
  O71      1.0000 0.51933  0.12338  0.32211  Biso   1.000  O
  O72      1.0000 0.46583  0.15208  0.31541  Biso   1.000  O
  O73      1.0000 0.35733  0.20578  0.31131  Biso   1.000  O
  O74      1.0000 0.31123  0.23668  0.29821  Biso   1.000  O
  O75      1.0000 0.87113  0.98738  0.08011  Biso   1.000  O
  O76      1.0000 0.86113  0.03918  0.98031  Biso   1.000  O
  O77      1.0000 0.85443  0.07068  0.92681  Biso   1.000  O
  O78      1.0000 0.85033  0.12958  0.81831  Biso   1.000  O
  O79      1.0000 0.83723  0.15788  0.77221  Biso   1.000  O
  O80      1.0000 0.98953  0.86898  0.52851  Biso   1.000  O
  O81      1.0000 0.04133  0.85898  0.58651  Biso   1.000  O
  O82      1.0000 0.07283  0.85228  0.61521  Biso   1.000  O
  O83      1.0000 0.13173  0.84818  0.66891  Biso   1.000  O
  O84      1.0000 0.16003  0.83508  0.69981  Biso   1.000  O
  O85      1.0000 0.15453  0.90038  0.16711  Biso   1.000  O
  O86      1.0000 0.25433  0.91038  0.10911  Biso   1.000  O
  O87      1.0000 0.30783  0.91708  0.08041  Biso   1.000  O
  O88      1.0000 0.41633  0.92118  0.02671  Biso   1.000  O
  O89      1.0000 0.46243  0.93428  0.99581  Biso   1.000  O
  O90      1.0000 0.70613  0.78198  0.61551  Biso   1.000  O
  O91      1.0000 0.64813  0.73018  0.71531  Biso   1.000  O
  O92      1.0000 0.61943  0.69868  0.76881  Biso   1.000  O
  O93      1.0000 0.56573  0.63978  0.87731  Biso   1.000  O
  O94      1.0000 0.53483  0.61148  0.92341  Biso   1.000  O
  O95      1.0000 0.78413  0.70398  0.36351  Biso   1.000  O
  O96      1.0000 0.73233  0.64598  0.37351  Biso   1.000  O
  O97      1.0000 0.70083  0.61728  0.38021  Biso   1.000  O
  O98      1.0000 0.64193  0.56358  0.38431  Biso   1.000  O
  O99      1.0000 0.61363  0.53268  0.39741  Biso   1.000  O
  O100     1.0000 0.90253  0.15238  0.24511  Biso   1.000  O
  O101     1.0000 0.91253  0.25218  0.19331  Biso   1.000  O
  O102     1.0000 0.91923  0.30568  0.16181  Biso   1.000  O
  O103     1.0000 0.92333  0.41418  0.10291  Biso   1.000  O
  O104     1.0000 0.93643  0.46028  0.07461  Biso   1.000  O
  O105     1.0000 0.78413  0.90038  0.61551  Biso   1.000  O
  O106     1.0000 0.73233  0.91038  0.71531  Biso   1.000  O
  O107     1.0000 0.70083  0.91708  0.76881  Biso   1.000  O
  O108     1.0000 0.64193  0.92118  0.87731  Biso   1.000  O
  O109     1.0000 0.61363  0.93428  0.92341  Biso   1.000  O
  O110     1.0000 0.90253  0.78198  0.16711  Biso   1.000  O
  O111     1.0000 0.91253  0.73018  0.10911  Biso   1.000  O
  O112     1.0000 0.91923  0.69868  0.08041  Biso   1.000  O
  O113     1.0000 0.92333  0.63978  0.02671  Biso   1.000  O
  O114     1.0000 0.93643  0.61148  0.99581  Biso   1.000  O
  O115     1.0000 0.15453  0.70398  0.24511  Biso   1.000  O
  O116     1.0000 0.25433  0.64598  0.19331  Biso   1.000  O
  O117     1.0000 0.30783  0.61728  0.16181  Biso   1.000  O
  O118     1.0000 0.41633  0.56358  0.10291  Biso   1.000  O
  O119     1.0000 0.46243  0.53268  0.07461  Biso   1.000  O
  O120     1.0000 0.70613  0.15238  0.36351  Biso   1.000  O
  O121     1.0000 0.64813  0.25218  0.37351  Biso   1.000  O
  O122     1.0000 0.61943  0.30568  0.38021  Biso   1.000  O
  O123     1.0000 0.56573  0.41418  0.38431  Biso   1.000  O
  O124     1.0000 0.53483  0.46028  0.39741  Biso   1.000  O
  O125     1.0000 0.70613  0.90038  0.24511  Biso   1.000  O
  O126     1.0000 0.64813  0.91038  0.19331  Biso   1.000  O
  O127     1.0000 0.61943  0.91708  0.16181  Biso   1.000  O
  O128     1.0000 0.56573  0.92118  0.10291  Biso   1.000  O
  O129     1.0000 0.53483  0.93428  0.07461  Biso   1.000  O
  O130     1.0000 0.15453  0.78198  0.36351  Biso   1.000  O
  O131     1.0000 0.25433  0.73018  0.37351  Biso   1.000  O
  O132     1.0000 0.30783  0.69868  0.38021  Biso   1.000  O
  O133     1.0000 0.41633  0.63978  0.38431  Biso   1.000  O
  O134     1.0000 0.46243  0.61148  0.39741  Biso   1.000  O
  O135     1.0000 0.90253  0.70398  0.61551  Biso   1.000  O
  O136     1.0000 0.91253  0.64598  0.71531  Biso   1.000  O
  O137     1.0000 0.91923  0.61728  0.76881  Biso   1.000  O
  O138     1.0000 0.92333  0.56358  0.87731  Biso   1.000  O
  O139     1.0000 0.93643  0.53268  0.92341  Biso   1.000  O
  O140     1.0000 0.78413  0.15238  0.16711  Biso   1.000  O
  O141     1.0000 0.73233  0.25218  0.10911  Biso   1.000  O
  O142     1.0000 0.70083  0.30568  0.08041  Biso   1.000  O
  O143     1.0000 0.64193  0.41418  0.02671  Biso   1.000  O
  O144     1.0000 0.61363  0.46028  0.99581  Biso   1.000  O
  O145     1.0000 0.15453  0.78198  0.16711  Biso   1.000  O
  O146     1.0000 0.25433  0.73018  0.10911  Biso   1.000  O
  O147     1.0000 0.30783  0.69868  0.08041  Biso   1.000  O
  O148     1.0000 0.41633  0.63978  0.02671  Biso   1.000  O
  O149     1.0000 0.46243  0.61148  0.99581  Biso   1.000  O
  O150     1.0000 0.70613  0.90038  0.61551  Biso   1.000  O
  O151     1.0000 0.64813  0.91038  0.71531  Biso   1.000  O
  O152     1.0000 0.61943  0.91708  0.76881  Biso   1.000  O
  O153     1.0000 0.56573  0.92118  0.87731  Biso   1.000  O
  O154     1.0000 0.53483  0.93428  0.92341  Biso   1.000  O
  O155     1.0000 0.78413  0.15238  0.36351  Biso   1.000  O
  O156     1.0000 0.73233  0.25218  0.37351  Biso   1.000  O
  O157     1.0000 0.70083  0.30568  0.38021  Biso   1.000  O
  O158     1.0000 0.64193  0.41418  0.38431  Biso   1.000  O
  O159     1.0000 0.61363  0.46028  0.39741  Biso   1.000  O
  O160     1.0000 0.90253  0.70398  0.24511  Biso   1.000  O
  O161     1.0000 0.91253  0.64598  0.19331  Biso   1.000  O
  O162     1.0000 0.91923  0.61728  0.16181  Biso   1.000  O
  O163     1.0000 0.92333  0.56358  0.10291  Biso   1.000  O
  O164     1.0000 0.93643  0.53268  0.07461  Biso   1.000  O
  O165     1.0000 0.78413  0.70398  0.61551  Biso   1.000  O
  O166     1.0000 0.73233  0.64598  0.71531  Biso   1.000  O
  O167     1.0000 0.70083  0.61728  0.76881  Biso   1.000  O
  O168     1.0000 0.64193  0.56358  0.87731  Biso   1.000  O
  O169     1.0000 0.61363  0.53268  0.92341  Biso   1.000  O
  O170     1.0000 0.90253  0.15238  0.16711  Biso   1.000  O
  O171     1.0000 0.91253  0.25218  0.10911  Biso   1.000  O
  O172     1.0000 0.91923  0.30568  0.08041  Biso   1.000  O
  O173     1.0000 0.92333  0.41418  0.02671  Biso   1.000  O
  O174     1.0000 0.93643  0.46028  0.99581  Biso   1.000  O
  O175     1.0000 0.15453  0.90038  0.24511  Biso   1.000  O
  O176     1.0000 0.25433  0.91038  0.19331  Biso   1.000  O
  O177     1.0000 0.30783  0.91708  0.16181  Biso   1.000  O
  O178     1.0000 0.41633  0.92118  0.10291  Biso   1.000  O
  O179     1.0000 0.46243  0.93428  0.07461  Biso   1.000  O
  O180     1.0000 0.70613  0.78198  0.36351  Biso   1.000  O
  O181     1.0000 0.64813  0.73018  0.37351  Biso   1.000  O
  O182     1.0000 0.61943  0.69868  0.38021  Biso   1.000  O
  O183     1.0000 0.56573  0.63978  0.38431  Biso   1.000  O
  O184     1.0000 0.53483  0.61148  0.39741  Biso   1.000  O
  O185     1.0000 0.70613  0.15238  0.24511  Biso   1.000  O
  O186     1.0000 0.64813  0.25218  0.19331  Biso   1.000  O
  O187     1.0000 0.61943  0.30568  0.16181  Biso   1.000  O
  O188     1.0000 0.56573  0.41418  0.10291  Biso   1.000  O
  O189     1.0000 0.53483  0.46028  0.07461  Biso   1.000  O
  O190     1.0000 0.15453  0.70398  0.36351  Biso   1.000  O
  O191     1.0000 0.25433  0.64598  0.37351  Biso   1.000  O
  O192     1.0000 0.30783  0.61728  0.38021  Biso   1.000  O
  O193     1.0000 0.41633  0.56358  0.38431  Biso   1.000  O
  O194     1.0000 0.46243  0.53268  0.39741  Biso   1.000  O
  O195     1.0000 0.90253  0.78198  0.61551  Biso   1.000  O
  O196     1.0000 0.91253  0.73018  0.71531  Biso   1.000  O
  O197     1.0000 0.91923  0.69868  0.76881  Biso   1.000  O
  O198     1.0000 0.92333  0.63978  0.87731  Biso   1.000  O
  O199     1.0000 0.93643  0.61148  0.92341  Biso   1.000  O
  O200     1.0000 0.78413  0.90038  0.16711  Biso   1.000  O
  O201     1.0000 0.73233  0.91038  0.10911  Biso   1.000  O
  O202     1.0000 0.70083  0.91708  0.08041  Biso   1.000  O
  O203     1.0000 0.64193  0.92118  0.02671  Biso   1.000  O
  O204     1.0000 0.61363  0.93428  0.99581  Biso   1.000  O
  O205     1.0000 0.61913  0.86898  0.52851  Biso   1.000  O
  O206     1.0000 0.51933  0.85898  0.58651  Biso   1.000  O
  O207     1.0000 0.46583  0.85228  0.61521  Biso   1.000  O
  O208     1.0000 0.35733  0.84818  0.66891  Biso   1.000  O
  O209     1.0000 0.31123  0.83508  0.69981  Biso   1.000  O
  O210     1.0000 0.06753  0.98738  0.08011  Biso   1.000  O
  O211     1.0000 0.12553  0.03918  0.98031  Biso   1.000  O
  O212     1.0000 0.15423  0.07068  0.92681  Biso   1.000  O
  O213     1.0000 0.20793  0.12958  0.81831  Biso   1.000  O
  O214     1.0000 0.23883  0.15788  0.77221  Biso   1.000  O
  O215     1.0000 0.98953  0.06538  0.33211  Biso   1.000  O
  O216     1.0000 0.04133  0.12338  0.32211  Biso   1.000  O
  O217     1.0000 0.07283  0.15208  0.31541  Biso   1.000  O
  O218     1.0000 0.13173  0.20578  0.31131  Biso   1.000  O
  O219     1.0000 0.16003  0.23668  0.29821  Biso   1.000  O
  O220     1.0000 0.87113  0.61698  0.45051  Biso   1.000  O
  O221     1.0000 0.86113  0.51718  0.50231  Biso   1.000  O
  O222     1.0000 0.85443  0.46368  0.53381  Biso   1.000  O
  O223     1.0000 0.85033  0.35518  0.59271  Biso   1.000  O
  O224     1.0000 0.83723  0.30908  0.62101  Biso   1.000  O
  O225     1.0000 0.98953  0.86898  0.08011  Biso   1.000  O
  O226     1.0000 0.04133  0.85898  0.98031  Biso   1.000  O
  O227     1.0000 0.07283  0.85228  0.92681  Biso   1.000  O
  O228     1.0000 0.13173  0.84818  0.81831  Biso   1.000  O
  O229     1.0000 0.16003  0.83508  0.77221  Biso   1.000  O
  O230     1.0000 0.87113  0.98738  0.52851  Biso   1.000  O
  O231     1.0000 0.86113  0.03918  0.58651  Biso   1.000  O
  O232     1.0000 0.85443  0.07068  0.61521  Biso   1.000  O
  O233     1.0000 0.85033  0.12958  0.66891  Biso   1.000  O
  O234     1.0000 0.83723  0.15788  0.69981  Biso   1.000  O
  O235     1.0000 0.61913  0.06538  0.45051  Biso   1.000  O
  O236     1.0000 0.51933  0.12338  0.50231  Biso   1.000  O
  O237     1.0000 0.46583  0.15208  0.53381  Biso   1.000  O
  O238     1.0000 0.35733  0.20578  0.59271  Biso   1.000  O
  O239     1.0000 0.31123  0.23668  0.62101  Biso   1.000  O
  O240     1.0000 0.06753  0.61698  0.33211  Biso   1.000  O
  O241     1.0000 0.12553  0.51718  0.32211  Biso   1.000  O
  O242     1.0000 0.15423  0.46368  0.31541  Biso   1.000  O
  O243     1.0000 0.20793  0.35518  0.31131  Biso   1.000  O
  O244     1.0000 0.23883  0.30908  0.29821  Biso   1.000  O
  O245     1.0000 0.06753  0.86898  0.45051  Biso   1.000  O
  O246     1.0000 0.12553  0.85898  0.50231  Biso   1.000  O
  O247     1.0000 0.15423  0.85228  0.53381  Biso   1.000  O
  O248     1.0000 0.20793  0.84818  0.59271  Biso   1.000  O
  O249     1.0000 0.23883  0.83508  0.62101  Biso   1.000  O
  O250     1.0000 0.61913  0.98738  0.33211  Biso   1.000  O
  O251     1.0000 0.51933  0.03918  0.32211  Biso   1.000  O
  O252     1.0000 0.46583  0.07068  0.31541  Biso   1.000  O
  O253     1.0000 0.35733  0.12958  0.31131  Biso   1.000  O
  O254     1.0000 0.31123  0.15788  0.29821  Biso   1.000  O
  O255     1.0000 0.87113  0.06538  0.08011  Biso   1.000  O
  O256     1.0000 0.86113  0.12338  0.98031  Biso   1.000  O
  O257     1.0000 0.85443  0.15208  0.92681  Biso   1.000  O
  O258     1.0000 0.85033  0.20578  0.81831  Biso   1.000  O
  O259     1.0000 0.83723  0.23668  0.77221  Biso   1.000  O
  O260     1.0000 0.98953  0.61698  0.52851  Biso   1.000  O
  O261     1.0000 0.04133  0.51718  0.58651  Biso   1.000  O
  O262     1.0000 0.07283  0.46368  0.61521  Biso   1.000  O
  O263     1.0000 0.13173  0.35518  0.66891  Biso   1.000  O
  O264     1.0000 0.16003  0.30908  0.69981  Biso   1.000  O
  O265     1.0000 0.69583  0.98608  0.44921  Biso   1.000  O
  O266     1.0000 0.98823  0.87288  0.15681  Biso   1.000  O
  O267     1.0000 0.98823  0.69368  0.33601  Biso   1.000  O
  O268     1.0000 0.87503  0.98608  0.44921  Biso   1.000  O
  O269     1.0000 0.98823  0.98608  0.15681  Biso   1.000  O
  O270     1.0000 0.87503  0.69368  0.44921  Biso   1.000  O
  O271     1.0000 0.69583  0.87288  0.44921  Biso   1.000  O
  O272     1.0000 0.98823  0.98608  0.33601  Biso   1.000  O
  O273     1.0000 0.98823  0.69368  0.44921  Biso   1.000  O
  O274     1.0000 0.69583  0.98608  0.33601  Biso   1.000  O
  O275     1.0000 0.87503  0.98608  0.15681  Biso   1.000  O
  O276     1.0000 0.98823  0.87288  0.44921  Biso   1.000  O
  O277     1.0000 0.07783  0.89648  0.24641  Biso   1.000  O
  O278     1.0000 0.78543  0.78328  0.53881  Biso   1.000  O
  O279     1.0000 0.78543  0.78328  0.35961  Biso   1.000  O
  O280     1.0000 0.89863  0.07568  0.24641  Biso   1.000  O
  O281     1.0000 0.78543  0.89648  0.53881  Biso   1.000  O
  O282     1.0000 0.89863  0.78328  0.24641  Biso   1.000  O
  O283     1.0000 0.07783  0.78328  0.24641  Biso   1.000  O
  O284     1.0000 0.78543  0.07568  0.35961  Biso   1.000  O
  O285     1.0000 0.78543  0.89648  0.24641  Biso   1.000  O
  O286     1.0000 0.07783  0.78328  0.35961  Biso   1.000  O
  O287     1.0000 0.89863  0.78328  0.53881  Biso   1.000  O
  O288     1.0000 0.78543  0.07568  0.24641  Biso   1.000  O
  O289     1.0000 0.26943  0.26728  0.64801  Biso   1.000  O
  O290     1.0000 0.18703  0.81928  0.73041  Biso   1.000  O
  O291     1.0000 0.26943  0.26728  0.28241  Biso   1.000  O
  O292     1.0000 0.82143  0.18488  0.73041  Biso   1.000  O
  O293     1.0000 0.26943  0.18488  0.73041  Biso   1.000  O
  O294     1.0000 0.82143  0.26728  0.64801  Biso   1.000  O
  O295     1.0000 0.26943  0.81928  0.73041  Biso   1.000  O
  O296     1.0000 0.18703  0.26728  0.28241  Biso   1.000  O
  O297     1.0000 0.18703  0.26728  0.73041  Biso   1.000  O
  O298     1.0000 0.26943  0.18488  0.28241  Biso   1.000  O
  O299     1.0000 0.82143  0.26728  0.73041  Biso   1.000  O
  O300     1.0000 0.26943  0.81928  0.64801  Biso   1.000  O
  O301     1.0000 0.50423  0.95008  0.04761  Biso   1.000  O
  O302     1.0000 0.58663  0.50208  0.96521  Biso   1.000  O
  O303     1.0000 0.50423  0.58448  0.41321  Biso   1.000  O
  O304     1.0000 0.95223  0.50208  0.96521  Biso   1.000  O
  O305     1.0000 0.50423  0.95008  0.96521  Biso   1.000  O
  O306     1.0000 0.95223  0.50208  0.04761  Biso   1.000  O
  O307     1.0000 0.50423  0.58448  0.96521  Biso   1.000  O
  O308     1.0000 0.58663  0.50208  0.41321  Biso   1.000  O
  O309     1.0000 0.58663  0.95008  0.96521  Biso   1.000  O
  O310     1.0000 0.50423  0.50208  0.41321  Biso   1.000  O
  O311     1.0000 0.95223  0.58448  0.96521  Biso   1.000  O
  O312     1.0000 0.50423  0.50208  0.04761  Biso   1.000  O
  O313     1.0000 0.67353  0.94218  0.51031  Biso   1.000  O
  O314     1.0000 0.66293  0.97898  0.49391  Biso   1.000  O
  O315     1.0000 0.63123  0.99888  0.50741  Biso   1.000  O
  O316     1.0000 0.50873  0.06238  0.57751  Biso   1.000  O
  O317     1.0000 0.47773  0.08118  0.59331  Biso   1.000  O
  O318     1.0000 0.35053  0.15298  0.65891  Biso   1.000  O
  O319     1.0000 0.32013  0.16998  0.67731  Biso   1.000  O
  O320     1.0000 0.04933  0.87798  0.13451  Biso   1.000  O
  O321     1.0000 0.03293  0.86818  0.12391  Biso   1.000  O
  O322     1.0000 0.04643  0.86648  0.09221  Biso   1.000  O
  O323     1.0000 0.11653  0.85538  0.96971  Biso   1.000  O
  O324     1.0000 0.13233  0.85178  0.93871  Biso   1.000  O
  O325     1.0000 0.19793  0.84158  0.81151  Biso   1.000  O
  O326     1.0000 0.21633  0.83658  0.78111  Biso   1.000  O
  O327     1.0000 0.94433  0.67138  0.34111  Biso   1.000  O
  O328     1.0000 0.98113  0.66078  0.33131  Biso   1.000  O
  O329     1.0000 0.00103  0.62908  0.32961  Biso   1.000  O
  O330     1.0000 0.06453  0.50658  0.31851  Biso   1.000  O
  O331     1.0000 0.08333  0.47558  0.31491  Biso   1.000  O
  O332     1.0000 0.15513  0.34838  0.30471  Biso   1.000  O
  O333     1.0000 0.17213  0.31798  0.29971  Biso   1.000  O
  O334     1.0000 0.88013  0.04718  0.40531  Biso   1.000  O
  O335     1.0000 0.87033  0.03078  0.44211  Biso   1.000  O
  O336     1.0000 0.86863  0.04428  0.46201  Biso   1.000  O
  O337     1.0000 0.85753  0.11438  0.52551  Biso   1.000  O
  O338     1.0000 0.85393  0.13018  0.54431  Biso   1.000  O
  O339     1.0000 0.84373  0.19578  0.61611  Biso   1.000  O
  O340     1.0000 0.83873  0.21418  0.63311  Biso   1.000  O
  O341     1.0000 0.94433  0.04718  0.13451  Biso   1.000  O
  O342     1.0000 0.98113  0.03078  0.12391  Biso   1.000  O
  O343     1.0000 0.00103  0.04428  0.09221  Biso   1.000  O
  O344     1.0000 0.06453  0.11438  0.96971  Biso   1.000  O
  O345     1.0000 0.08333  0.13018  0.93871  Biso   1.000  O
  O346     1.0000 0.15513  0.19578  0.81151  Biso   1.000  O
  O347     1.0000 0.17213  0.21418  0.78111  Biso   1.000  O
  O348     1.0000 0.88013  0.67138  0.51031  Biso   1.000  O
  O349     1.0000 0.87033  0.66078  0.49391  Biso   1.000  O
  O350     1.0000 0.86863  0.62908  0.50741  Biso   1.000  O
  O351     1.0000 0.85753  0.50658  0.57751  Biso   1.000  O
  O352     1.0000 0.85393  0.47558  0.59331  Biso   1.000  O
  O353     1.0000 0.84373  0.34838  0.65891  Biso   1.000  O
  O354     1.0000 0.83873  0.31798  0.67731  Biso   1.000  O
  O355     1.0000 0.67353  0.87798  0.40531  Biso   1.000  O
  O356     1.0000 0.66293  0.86818  0.44211  Biso   1.000  O
  O357     1.0000 0.63123  0.86648  0.46201  Biso   1.000  O
  O358     1.0000 0.50873  0.85538  0.52551  Biso   1.000  O
  O359     1.0000 0.47773  0.85178  0.54431  Biso   1.000  O
  O360     1.0000 0.35053  0.84158  0.61611  Biso   1.000  O
  O361     1.0000 0.32013  0.83658  0.63311  Biso   1.000  O
  O362     1.0000 0.04933  0.94218  0.34111  Biso   1.000  O
  O363     1.0000 0.03293  0.97898  0.33131  Biso   1.000  O
  O364     1.0000 0.04643  0.99888  0.32961  Biso   1.000  O
  O365     1.0000 0.11653  0.06238  0.31851  Biso   1.000  O
  O366     1.0000 0.13233  0.08118  0.31491  Biso   1.000  O
  O367     1.0000 0.19793  0.15298  0.30471  Biso   1.000  O
  O368     1.0000 0.21633  0.16998  0.29971  Biso   1.000  O
  O369     1.0000 0.04933  0.67138  0.40531  Biso   1.000  O
  O370     1.0000 0.03293  0.66078  0.44211  Biso   1.000  O
  O371     1.0000 0.04643  0.62908  0.46201  Biso   1.000  O
  O372     1.0000 0.11653  0.50658  0.52551  Biso   1.000  O
  O373     1.0000 0.13233  0.47558  0.54431  Biso   1.000  O
  O374     1.0000 0.19793  0.34838  0.61611  Biso   1.000  O
  O375     1.0000 0.21633  0.31798  0.63311  Biso   1.000  O
  O376     1.0000 0.67353  0.04718  0.34111  Biso   1.000  O
  O377     1.0000 0.66293  0.03078  0.33131  Biso   1.000  O
  O378     1.0000 0.63123  0.04428  0.32961  Biso   1.000  O
  O379     1.0000 0.50873  0.11438  0.31851  Biso   1.000  O
  O380     1.0000 0.47773  0.13018  0.31491  Biso   1.000  O
  O381     1.0000 0.35053  0.19578  0.30471  Biso   1.000  O
  O382     1.0000 0.32013  0.21418  0.29971  Biso   1.000  O
  O383     1.0000 0.88013  0.94218  0.13451  Biso   1.000  O
  O384     1.0000 0.87033  0.97898  0.12391  Biso   1.000  O
  O385     1.0000 0.86863  0.99888  0.09221  Biso   1.000  O
  O386     1.0000 0.85753  0.06238  0.96971  Biso   1.000  O
  O387     1.0000 0.85393  0.08118  0.93871  Biso   1.000  O
  O388     1.0000 0.84373  0.15298  0.81151  Biso   1.000  O
  O389     1.0000 0.83873  0.16998  0.78111  Biso   1.000  O
  O390     1.0000 0.94433  0.87798  0.51031  Biso   1.000  O
  O391     1.0000 0.98113  0.86818  0.49391  Biso   1.000  O
  O392     1.0000 0.00103  0.86648  0.50741  Biso   1.000  O
  O393     1.0000 0.06453  0.85538  0.57751  Biso   1.000  O
  O394     1.0000 0.08333  0.85178  0.59331  Biso   1.000  O
  O395     1.0000 0.15513  0.84158  0.65891  Biso   1.000  O
  O396     1.0000 0.17213  0.83658  0.67731  Biso   1.000  O
  O397     1.0000 0.10013  0.89138  0.18531  Biso   1.000  O
  O398     1.0000 0.11073  0.90118  0.20171  Biso   1.000  O
  O399     1.0000 0.14243  0.90288  0.18821  Biso   1.000  O
  O400     1.0000 0.26493  0.91398  0.11811  Biso   1.000  O
  O401     1.0000 0.29593  0.91758  0.10231  Biso   1.000  O
  O402     1.0000 0.42313  0.92778  0.03671  Biso   1.000  O
  O403     1.0000 0.45353  0.93278  0.01831  Biso   1.000  O
  O404     1.0000 0.72433  0.82718  0.56111  Biso   1.000  O
  O405     1.0000 0.74073  0.79038  0.57171  Biso   1.000  O
  O406     1.0000 0.72723  0.77048  0.60341  Biso   1.000  O
  O407     1.0000 0.65713  0.70698  0.72591  Biso   1.000  O
  O408     1.0000 0.64133  0.68818  0.75691  Biso   1.000  O
  O409     1.0000 0.57573  0.61638  0.88411  Biso   1.000  O
  O410     1.0000 0.55733  0.59938  0.91451  Biso   1.000  O
  O411     1.0000 0.82933  0.72218  0.35451  Biso   1.000  O
  O412     1.0000 0.79253  0.73858  0.36431  Biso   1.000  O
  O413     1.0000 0.77263  0.72508  0.36601  Biso   1.000  O
  O414     1.0000 0.70913  0.65498  0.37711  Biso   1.000  O
  O415     1.0000 0.69033  0.63918  0.38071  Biso   1.000  O
  O416     1.0000 0.61853  0.57358  0.39091  Biso   1.000  O
  O417     1.0000 0.60153  0.55518  0.39591  Biso   1.000  O
  O418     1.0000 0.89353  0.09798  0.29031  Biso   1.000  O
  O419     1.0000 0.90333  0.10858  0.25351  Biso   1.000  O
  O420     1.0000 0.90503  0.14028  0.23361  Biso   1.000  O
  O421     1.0000 0.91613  0.26278  0.17011  Biso   1.000  O
  O422     1.0000 0.91973  0.29378  0.15131  Biso   1.000  O
  O423     1.0000 0.92993  0.42098  0.07951  Biso   1.000  O
  O424     1.0000 0.93493  0.45138  0.06251  Biso   1.000  O
  O425     1.0000 0.82933  0.89138  0.56111  Biso   1.000  O
  O426     1.0000 0.79253  0.90118  0.57171  Biso   1.000  O
  O427     1.0000 0.77263  0.90288  0.60341  Biso   1.000  O
  O428     1.0000 0.70913  0.91398  0.72591  Biso   1.000  O
  O429     1.0000 0.69033  0.91758  0.75691  Biso   1.000  O
  O430     1.0000 0.61853  0.92778  0.88411  Biso   1.000  O
  O431     1.0000 0.60153  0.93278  0.91451  Biso   1.000  O
  O432     1.0000 0.89353  0.82718  0.18531  Biso   1.000  O
  O433     1.0000 0.90333  0.79038  0.20171  Biso   1.000  O
  O434     1.0000 0.90503  0.77048  0.18821  Biso   1.000  O
  O435     1.0000 0.91613  0.70698  0.11811  Biso   1.000  O
  O436     1.0000 0.91973  0.68818  0.10231  Biso   1.000  O
  O437     1.0000 0.92993  0.61638  0.03671  Biso   1.000  O
  O438     1.0000 0.93493  0.59938  0.01831  Biso   1.000  O
  O439     1.0000 0.10013  0.72218  0.29031  Biso   1.000  O
  O440     1.0000 0.11073  0.73858  0.25351  Biso   1.000  O
  O441     1.0000 0.14243  0.72508  0.23361  Biso   1.000  O
  O442     1.0000 0.26493  0.65498  0.17011  Biso   1.000  O
  O443     1.0000 0.29593  0.63918  0.15131  Biso   1.000  O
  O444     1.0000 0.42313  0.57358  0.07951  Biso   1.000  O
  O445     1.0000 0.45353  0.55518  0.06251  Biso   1.000  O
  O446     1.0000 0.72433  0.09798  0.35451  Biso   1.000  O
  O447     1.0000 0.74073  0.10858  0.36431  Biso   1.000  O
  O448     1.0000 0.72723  0.14028  0.36601  Biso   1.000  O
  O449     1.0000 0.65713  0.26278  0.37711  Biso   1.000  O
  O450     1.0000 0.64133  0.29378  0.38071  Biso   1.000  O
  O451     1.0000 0.57573  0.42098  0.39091  Biso   1.000  O
  O452     1.0000 0.55733  0.45138  0.39591  Biso   1.000  O
  O453     1.0000 0.72433  0.89138  0.29031  Biso   1.000  O
  O454     1.0000 0.74073  0.90118  0.25351  Biso   1.000  O
  O455     1.0000 0.72723  0.90288  0.23361  Biso   1.000  O
  O456     1.0000 0.65713  0.91398  0.17011  Biso   1.000  O
  O457     1.0000 0.64133  0.91758  0.15131  Biso   1.000  O
  O458     1.0000 0.57573  0.92778  0.07951  Biso   1.000  O
  O459     1.0000 0.55733  0.93278  0.06251  Biso   1.000  O
  O460     1.0000 0.10013  0.82718  0.35451  Biso   1.000  O
  O461     1.0000 0.11073  0.79038  0.36431  Biso   1.000  O
  O462     1.0000 0.14243  0.77048  0.36601  Biso   1.000  O
  O463     1.0000 0.26493  0.70698  0.37711  Biso   1.000  O
  O464     1.0000 0.29593  0.68818  0.38071  Biso   1.000  O
  O465     1.0000 0.42313  0.61638  0.39091  Biso   1.000  O
  O466     1.0000 0.45353  0.59938  0.39591  Biso   1.000  O
  O467     1.0000 0.89353  0.72218  0.56111  Biso   1.000  O
  O468     1.0000 0.90333  0.73858  0.57171  Biso   1.000  O
  O469     1.0000 0.90503  0.72508  0.60341  Biso   1.000  O
  O470     1.0000 0.91613  0.65498  0.72591  Biso   1.000  O
  O471     1.0000 0.91973  0.63918  0.75691  Biso   1.000  O
  O472     1.0000 0.92993  0.57358  0.88411  Biso   1.000  O
  O473     1.0000 0.93493  0.55518  0.91451  Biso   1.000  O
  O474     1.0000 0.82933  0.09798  0.18531  Biso   1.000  O
  O475     1.0000 0.79253  0.10858  0.20171  Biso   1.000  O
  O476     1.0000 0.77263  0.14028  0.18821  Biso   1.000  O
  O477     1.0000 0.70913  0.26278  0.11811  Biso   1.000  O
  O478     1.0000 0.69033  0.29378  0.10231  Biso   1.000  O
  O479     1.0000 0.61853  0.42098  0.03671  Biso   1.000  O
  O480     1.0000 0.60153  0.45138  0.01831  Biso   1.000  O
  O481     1.0000 0.10013  0.82718  0.18531  Biso   1.000  O
  O482     1.0000 0.11073  0.79038  0.20171  Biso   1.000  O
  O483     1.0000 0.14243  0.77048  0.18821  Biso   1.000  O
  O484     1.0000 0.26493  0.70698  0.11811  Biso   1.000  O
  O485     1.0000 0.29593  0.68818  0.10231  Biso   1.000  O
  O486     1.0000 0.42313  0.61638  0.03671  Biso   1.000  O
  O487     1.0000 0.45353  0.59938  0.01831  Biso   1.000  O
  O488     1.0000 0.72433  0.89138  0.56111  Biso   1.000  O
  O489     1.0000 0.74073  0.90118  0.57171  Biso   1.000  O
  O490     1.0000 0.72723  0.90288  0.60341  Biso   1.000  O
  O491     1.0000 0.65713  0.91398  0.72591  Biso   1.000  O
  O492     1.0000 0.64133  0.91758  0.75691  Biso   1.000  O
  O493     1.0000 0.57573  0.92778  0.88411  Biso   1.000  O
  O494     1.0000 0.55733  0.93278  0.91451  Biso   1.000  O
  O495     1.0000 0.82933  0.09798  0.35451  Biso   1.000  O
  O496     1.0000 0.79253  0.10858  0.36431  Biso   1.000  O
  O497     1.0000 0.77263  0.14028  0.36601  Biso   1.000  O
  O498     1.0000 0.70913  0.26278  0.37711  Biso   1.000  O
  O499     1.0000 0.69033  0.29378  0.38071  Biso   1.000  O
  O500     1.0000 0.61853  0.42098  0.39091  Biso   1.000  O
  O501     1.0000 0.60153  0.45138  0.39591  Biso   1.000  O
  O502     1.0000 0.89353  0.72218  0.29031  Biso   1.000  O
  O503     1.0000 0.90333  0.73858  0.25351  Biso   1.000  O
  O504     1.0000 0.90503  0.72508  0.23361  Biso   1.000  O
  O505     1.0000 0.91613  0.65498  0.17011  Biso   1.000  O
  O506     1.0000 0.91973  0.63918  0.15131  Biso   1.000  O
  O507     1.0000 0.92993  0.57358  0.07951  Biso   1.000  O
  O508     1.0000 0.93493  0.55518  0.06251  Biso   1.000  O
  O509     1.0000 0.82933  0.72218  0.56111  Biso   1.000  O
  O510     1.0000 0.79253  0.73858  0.57171  Biso   1.000  O
  O511     1.0000 0.77263  0.72508  0.60341  Biso   1.000  O
  O512     1.0000 0.70913  0.65498  0.72591  Biso   1.000  O
  O513     1.0000 0.69033  0.63918  0.75691  Biso   1.000  O
  O514     1.0000 0.61853  0.57358  0.88411  Biso   1.000  O
  O515     1.0000 0.60153  0.55518  0.91451  Biso   1.000  O
  O516     1.0000 0.89353  0.09798  0.18531  Biso   1.000  O
  O517     1.0000 0.90333  0.10858  0.20171  Biso   1.000  O
  O518     1.0000 0.90503  0.14028  0.18821  Biso   1.000  O
  O519     1.0000 0.91613  0.26278  0.11811  Biso   1.000  O
  O520     1.0000 0.91973  0.29378  0.10231  Biso   1.000  O
  O521     1.0000 0.92993  0.42098  0.03671  Biso   1.000  O
  O522     1.0000 0.93493  0.45138  0.01831  Biso   1.000  O
  O523     1.0000 0.10013  0.89138  0.29031  Biso   1.000  O
  O524     1.0000 0.11073  0.90118  0.25351  Biso   1.000  O
  O525     1.0000 0.14243  0.90288  0.23361  Biso   1.000  O
  O526     1.0000 0.26493  0.91398  0.17011  Biso   1.000  O
  O527     1.0000 0.29593  0.91758  0.15131  Biso   1.000  O
  O528     1.0000 0.42313  0.92778  0.07951  Biso   1.000  O
  O529     1.0000 0.45353  0.93278  0.06251  Biso   1.000  O
  O530     1.0000 0.72433  0.82718  0.35451  Biso   1.000  O
  O531     1.0000 0.74073  0.79038  0.36431  Biso   1.000  O
  O532     1.0000 0.72723  0.77048  0.36601  Biso   1.000  O
  O533     1.0000 0.65713  0.70698  0.37711  Biso   1.000  O
  O534     1.0000 0.64133  0.68818  0.38071  Biso   1.000  O
  O535     1.0000 0.57573  0.61638  0.39091  Biso   1.000  O
  O536     1.0000 0.55733  0.59938  0.39591  Biso   1.000  O
  O537     1.0000 0.72433  0.09798  0.29031  Biso   1.000  O
  O538     1.0000 0.74073  0.10858  0.25351  Biso   1.000  O
  O539     1.0000 0.72723  0.14028  0.23361  Biso   1.000  O
  O540     1.0000 0.65713  0.26278  0.17011  Biso   1.000  O
  O541     1.0000 0.64133  0.29378  0.15131  Biso   1.000  O
  O542     1.0000 0.57573  0.42098  0.07951  Biso   1.000  O
  O543     1.0000 0.55733  0.45138  0.06251  Biso   1.000  O
  O544     1.0000 0.10013  0.72218  0.35451  Biso   1.000  O
  O545     1.0000 0.11073  0.73858  0.36431  Biso   1.000  O
  O546     1.0000 0.14243  0.72508  0.36601  Biso   1.000  O
  O547     1.0000 0.26493  0.65498  0.37711  Biso   1.000  O
  O548     1.0000 0.29593  0.63918  0.38071  Biso   1.000  O
  O549     1.0000 0.42313  0.57358  0.39091  Biso   1.000  O
  O550     1.0000 0.45353  0.55518  0.39591  Biso   1.000  O
  O551     1.0000 0.89353  0.82718  0.56111  Biso   1.000  O
  O552     1.0000 0.90333  0.79038  0.57171  Biso   1.000  O
  O553     1.0000 0.90503  0.77048  0.60341  Biso   1.000  O
  O554     1.0000 0.91613  0.70698  0.72591  Biso   1.000  O
  O555     1.0000 0.91973  0.68818  0.75691  Biso   1.000  O
  O556     1.0000 0.92993  0.61638  0.88411  Biso   1.000  O
  O557     1.0000 0.93493  0.59938  0.91451  Biso   1.000  O
  O558     1.0000 0.82933  0.89138  0.18531  Biso   1.000  O
  O559     1.0000 0.79253  0.90118  0.20171  Biso   1.000  O
  O560     1.0000 0.77263  0.90288  0.18821  Biso   1.000  O
  O561     1.0000 0.70913  0.91398  0.11811  Biso   1.000  O
  O562     1.0000 0.69033  0.91758  0.10231  Biso   1.000  O
  O563     1.0000 0.61853  0.92778  0.03671  Biso   1.000  O
  O564     1.0000 0.60153  0.93278  0.01831  Biso   1.000  O
  O565     1.0000 0.67353  0.87798  0.51031  Biso   1.000  O
  O566     1.0000 0.66293  0.86818  0.49391  Biso   1.000  O
  O567     1.0000 0.63123  0.86648  0.50741  Biso   1.000  O
  O568     1.0000 0.50873  0.85538  0.57751  Biso   1.000  O
  O569     1.0000 0.47773  0.85178  0.59331  Biso   1.000  O
  O570     1.0000 0.35053  0.84158  0.65891  Biso   1.000  O
  O571     1.0000 0.32013  0.83658  0.67731  Biso   1.000  O
  O572     1.0000 0.04933  0.94218  0.13451  Biso   1.000  O
  O573     1.0000 0.03293  0.97898  0.12391  Biso   1.000  O
  O574     1.0000 0.04643  0.99888  0.09221  Biso   1.000  O
  O575     1.0000 0.11653  0.06238  0.96971  Biso   1.000  O
  O576     1.0000 0.13233  0.08118  0.93871  Biso   1.000  O
  O577     1.0000 0.19793  0.15298  0.81151  Biso   1.000  O
  O578     1.0000 0.21633  0.16998  0.78111  Biso   1.000  O
  O579     1.0000 0.94433  0.04718  0.34111  Biso   1.000  O
  O580     1.0000 0.98113  0.03078  0.33131  Biso   1.000  O
  O581     1.0000 0.00103  0.04428  0.32961  Biso   1.000  O
  O582     1.0000 0.06453  0.11438  0.31851  Biso   1.000  O
  O583     1.0000 0.08333  0.13018  0.31491  Biso   1.000  O
  O584     1.0000 0.15513  0.19578  0.30471  Biso   1.000  O
  O585     1.0000 0.17213  0.21418  0.29971  Biso   1.000  O
  O586     1.0000 0.88013  0.67138  0.40531  Biso   1.000  O
  O587     1.0000 0.87033  0.66078  0.44211  Biso   1.000  O
  O588     1.0000 0.86863  0.62908  0.46201  Biso   1.000  O
  O589     1.0000 0.85753  0.50658  0.52551  Biso   1.000  O
  O590     1.0000 0.85393  0.47558  0.54431  Biso   1.000  O
  O591     1.0000 0.84373  0.34838  0.61611  Biso   1.000  O
  O592     1.0000 0.83873  0.31798  0.63311  Biso   1.000  O
  O593     1.0000 0.94433  0.87798  0.13451  Biso   1.000  O
  O594     1.0000 0.98113  0.86818  0.12391  Biso   1.000  O
  O595     1.0000 0.00103  0.86648  0.09221  Biso   1.000  O
  O596     1.0000 0.06453  0.85538  0.96971  Biso   1.000  O
  O597     1.0000 0.08333  0.85178  0.93871  Biso   1.000  O
  O598     1.0000 0.15513  0.84158  0.81151  Biso   1.000  O
  O599     1.0000 0.17213  0.83658  0.78111  Biso   1.000  O
  O600     1.0000 0.88013  0.94218  0.51031  Biso   1.000  O
  O601     1.0000 0.87033  0.97898  0.49391  Biso   1.000  O
  O602     1.0000 0.86863  0.99888  0.50741  Biso   1.000  O
  O603     1.0000 0.85753  0.06238  0.57751  Biso   1.000  O
  O604     1.0000 0.85393  0.08118  0.59331  Biso   1.000  O
  O605     1.0000 0.84373  0.15298  0.65891  Biso   1.000  O
  O606     1.0000 0.83873  0.16998  0.67731  Biso   1.000  O
  O607     1.0000 0.67353  0.04718  0.40531  Biso   1.000  O
  O608     1.0000 0.66293  0.03078  0.44211  Biso   1.000  O
  O609     1.0000 0.63123  0.04428  0.46201  Biso   1.000  O
  O610     1.0000 0.50873  0.11438  0.52551  Biso   1.000  O
  O611     1.0000 0.47773  0.13018  0.54431  Biso   1.000  O
  O612     1.0000 0.35053  0.19578  0.61611  Biso   1.000  O
  O613     1.0000 0.32013  0.21418  0.63311  Biso   1.000  O
  O614     1.0000 0.04933  0.67138  0.34111  Biso   1.000  O
  O615     1.0000 0.03293  0.66078  0.33131  Biso   1.000  O
  O616     1.0000 0.04643  0.62908  0.32961  Biso   1.000  O
  O617     1.0000 0.11653  0.50658  0.31851  Biso   1.000  O
  O618     1.0000 0.13233  0.47558  0.31491  Biso   1.000  O
  O619     1.0000 0.19793  0.34838  0.30471  Biso   1.000  O
  O620     1.0000 0.21633  0.31798  0.29971  Biso   1.000  O
  O621     1.0000 0.04933  0.87798  0.40531  Biso   1.000  O
  O622     1.0000 0.03293  0.86818  0.44211  Biso   1.000  O
  O623     1.0000 0.04643  0.86648  0.46201  Biso   1.000  O
  O624     1.0000 0.11653  0.85538  0.52551  Biso   1.000  O
  O625     1.0000 0.13233  0.85178  0.54431  Biso   1.000  O
  O626     1.0000 0.19793  0.84158  0.61611  Biso   1.000  O
  O627     1.0000 0.21633  0.83658  0.63311  Biso   1.000  O
  O628     1.0000 0.67353  0.94218  0.34111  Biso   1.000  O
  O629     1.0000 0.66293  0.97898  0.33131  Biso   1.000  O
  O630     1.0000 0.63123  0.99888  0.32961  Biso   1.000  O
  O631     1.0000 0.50873  0.06238  0.31851  Biso   1.000  O
  O632     1.0000 0.47773  0.08118  0.31491  Biso   1.000  O
  O633     1.0000 0.35053  0.15298  0.30471  Biso   1.000  O
  O634     1.0000 0.32013  0.16998  0.29971  Biso   1.000  O
  O635     1.0000 0.88013  0.04718  0.13451  Biso   1.000  O
  O636     1.0000 0.87033  0.03078  0.12391  Biso   1.000  O
  O637     1.0000 0.86863  0.04428  0.09221  Biso   1.000  O
  O638     1.0000 0.85753  0.11438  0.96971  Biso   1.000  O
  O639     1.0000 0.85393  0.13018  0.93871  Biso   1.000  O
  O640     1.0000 0.84373  0.19578  0.81151  Biso   1.000  O
  O641     1.0000 0.83873  0.21418  0.78111  Biso   1.000  O
  O642     1.0000 0.94433  0.67138  0.51031  Biso   1.000  O
  O643     1.0000 0.98113  0.66078  0.49391  Biso   1.000  O
  O644     1.0000 0.00103  0.62908  0.50741  Biso   1.000  O
  O645     1.0000 0.06453  0.50658  0.57751  Biso   1.000  O
  O646     1.0000 0.08333  0.47558  0.59331  Biso   1.000  O
  O647     1.0000 0.15513  0.34838  0.65891  Biso   1.000  O
  O648     1.0000 0.17213  0.31798  0.67731  Biso   1.000  O
  O649     1.0000 0.67483  0.99808  0.46121  Biso   1.000  O
  O650     1.0000 0.61383  0.03268  0.49581  Biso   1.000  O
  O651     1.0000 0.58203  0.05108  0.51421  Biso   1.000  O
  O652     1.0000 0.55593  0.06678  0.52991  Biso   1.000  O
  O653     1.0000 0.52173  0.08318  0.54631  Biso   1.000  O
  O654     1.0000 0.46383  0.11468  0.57781  Biso   1.000  O
  O655     1.0000 0.43203  0.13288  0.59601  Biso   1.000  O
  O656     1.0000 0.40263  0.14608  0.60921  Biso   1.000  O
  O657     1.0000 0.37223  0.16508  0.62821  Biso   1.000  O
  O658     1.0000 0.30133  0.20298  0.66611  Biso   1.000  O
  O659     1.0000 0.26963  0.22128  0.68441  Biso   1.000  O
  O660     1.0000 0.00023  0.86988  0.13581  Biso   1.000  O
  O661     1.0000 0.03483  0.86168  0.07481  Biso   1.000  O
  O662     1.0000 0.05323  0.85668  0.04301  Biso   1.000  O
  O663     1.0000 0.06893  0.85138  0.01691  Biso   1.000  O
  O664     1.0000 0.08533  0.85278  0.98271  Biso   1.000  O
  O665     1.0000 0.11683  0.84768  0.92481  Biso   1.000  O
  O666     1.0000 0.13503  0.84308  0.89301  Biso   1.000  O
  O667     1.0000 0.14823  0.84608  0.86361  Biso   1.000  O
  O668     1.0000 0.16723  0.83848  0.83321  Biso   1.000  O
  O669     1.0000 0.20513  0.83358  0.76231  Biso   1.000  O
  O670     1.0000 0.22343  0.82868  0.73061  Biso   1.000  O
  O671     1.0000 0.00023  0.67268  0.33301  Biso   1.000  O
  O672     1.0000 0.03483  0.61168  0.32481  Biso   1.000  O
  O673     1.0000 0.05323  0.57988  0.31981  Biso   1.000  O
  O674     1.0000 0.06893  0.55378  0.31451  Biso   1.000  O
  O675     1.0000 0.08533  0.51958  0.31591  Biso   1.000  O
  O676     1.0000 0.11683  0.46168  0.31081  Biso   1.000  O
  O677     1.0000 0.13503  0.42988  0.30621  Biso   1.000  O
  O678     1.0000 0.14823  0.40048  0.30921  Biso   1.000  O
  O679     1.0000 0.16723  0.37008  0.30161  Biso   1.000  O
  O680     1.0000 0.20513  0.29918  0.29671  Biso   1.000  O
  O681     1.0000 0.22343  0.26748  0.29181  Biso   1.000  O
  O682     1.0000 0.87203  0.99808  0.46121  Biso   1.000  O
  O683     1.0000 0.86383  0.03268  0.49581  Biso   1.000  O
  O684     1.0000 0.85883  0.05108  0.51421  Biso   1.000  O
  O685     1.0000 0.85353  0.06678  0.52991  Biso   1.000  O
  O686     1.0000 0.85493  0.08318  0.54631  Biso   1.000  O
  O687     1.0000 0.84983  0.11468  0.57781  Biso   1.000  O
  O688     1.0000 0.84523  0.13288  0.59601  Biso   1.000  O
  O689     1.0000 0.84823  0.14608  0.60921  Biso   1.000  O
  O690     1.0000 0.84063  0.16508  0.62821  Biso   1.000  O
  O691     1.0000 0.83573  0.20298  0.66611  Biso   1.000  O
  O692     1.0000 0.83083  0.22128  0.68441  Biso   1.000  O
  O693     1.0000 0.00023  0.99808  0.13581  Biso   1.000  O
  O694     1.0000 0.03483  0.03268  0.07481  Biso   1.000  O
  O695     1.0000 0.05323  0.05108  0.04301  Biso   1.000  O
  O696     1.0000 0.06893  0.06678  0.01691  Biso   1.000  O
  O697     1.0000 0.08533  0.08318  0.98271  Biso   1.000  O
  O698     1.0000 0.11683  0.11468  0.92481  Biso   1.000  O
  O699     1.0000 0.13503  0.13288  0.89301  Biso   1.000  O
  O700     1.0000 0.14823  0.14608  0.86361  Biso   1.000  O
  O701     1.0000 0.16723  0.16508  0.83321  Biso   1.000  O
  O702     1.0000 0.20513  0.20298  0.76231  Biso   1.000  O
  O703     1.0000 0.22343  0.22128  0.73061  Biso   1.000  O
  O704     1.0000 0.87203  0.67268  0.46121  Biso   1.000  O
  O705     1.0000 0.86383  0.61168  0.49581  Biso   1.000  O
  O706     1.0000 0.85883  0.57988  0.51421  Biso   1.000  O
  O707     1.0000 0.85353  0.55378  0.52991  Biso   1.000  O
  O708     1.0000 0.85493  0.51958  0.54631  Biso   1.000  O
  O709     1.0000 0.84983  0.46168  0.57781  Biso   1.000  O
  O710     1.0000 0.84523  0.42988  0.59601  Biso   1.000  O
  O711     1.0000 0.84823  0.40048  0.60921  Biso   1.000  O
  O712     1.0000 0.84063  0.37008  0.62821  Biso   1.000  O
  O713     1.0000 0.83573  0.29918  0.66611  Biso   1.000  O
  O714     1.0000 0.83083  0.26748  0.68441  Biso   1.000  O
  O715     1.0000 0.67483  0.86988  0.46121  Biso   1.000  O
  O716     1.0000 0.61383  0.86168  0.49581  Biso   1.000  O
  O717     1.0000 0.58203  0.85668  0.51421  Biso   1.000  O
  O718     1.0000 0.55593  0.85138  0.52991  Biso   1.000  O
  O719     1.0000 0.52173  0.85278  0.54631  Biso   1.000  O
  O720     1.0000 0.46383  0.84768  0.57781  Biso   1.000  O
  O721     1.0000 0.43203  0.84308  0.59601  Biso   1.000  O
  O722     1.0000 0.40263  0.84608  0.60921  Biso   1.000  O
  O723     1.0000 0.37223  0.83848  0.62821  Biso   1.000  O
  O724     1.0000 0.30133  0.83358  0.66611  Biso   1.000  O
  O725     1.0000 0.26963  0.82868  0.68441  Biso   1.000  O
  O726     1.0000 0.00023  0.99808  0.33301  Biso   1.000  O
  O727     1.0000 0.03483  0.03268  0.32481  Biso   1.000  O
  O728     1.0000 0.05323  0.05108  0.31981  Biso   1.000  O
  O729     1.0000 0.06893  0.06678  0.31451  Biso   1.000  O
  O730     1.0000 0.08533  0.08318  0.31591  Biso   1.000  O
  O731     1.0000 0.11683  0.11468  0.31081  Biso   1.000  O
  O732     1.0000 0.13503  0.13288  0.30621  Biso   1.000  O
  O733     1.0000 0.14823  0.14608  0.30921  Biso   1.000  O
  O734     1.0000 0.16723  0.16508  0.30161  Biso   1.000  O
  O735     1.0000 0.20513  0.20298  0.29671  Biso   1.000  O
  O736     1.0000 0.22343  0.22128  0.29181  Biso   1.000  O
  O737     1.0000 0.00023  0.67268  0.46121  Biso   1.000  O
  O738     1.0000 0.03483  0.61168  0.49581  Biso   1.000  O
  O739     1.0000 0.05323  0.57988  0.51421  Biso   1.000  O
  O740     1.0000 0.06893  0.55378  0.52991  Biso   1.000  O
  O741     1.0000 0.08533  0.51958  0.54631  Biso   1.000  O
  O742     1.0000 0.11683  0.46168  0.57781  Biso   1.000  O
  O743     1.0000 0.13503  0.42988  0.59601  Biso   1.000  O
  O744     1.0000 0.14823  0.40048  0.60921  Biso   1.000  O
  O745     1.0000 0.16723  0.37008  0.62821  Biso   1.000  O
  O746     1.0000 0.20513  0.29918  0.66611  Biso   1.000  O
  O747     1.0000 0.22343  0.26748  0.68441  Biso   1.000  O
  O748     1.0000 0.67483  0.99808  0.33301  Biso   1.000  O
  O749     1.0000 0.61383  0.03268  0.32481  Biso   1.000  O
  O750     1.0000 0.58203  0.05108  0.31981  Biso   1.000  O
  O751     1.0000 0.55593  0.06678  0.31451  Biso   1.000  O
  O752     1.0000 0.52173  0.08318  0.31591  Biso   1.000  O
  O753     1.0000 0.46383  0.11468  0.31081  Biso   1.000  O
  O754     1.0000 0.43203  0.13288  0.30621  Biso   1.000  O
  O755     1.0000 0.40263  0.14608  0.30921  Biso   1.000  O
  O756     1.0000 0.37223  0.16508  0.30161  Biso   1.000  O
  O757     1.0000 0.30133  0.20298  0.29671  Biso   1.000  O
  O758     1.0000 0.26963  0.22128  0.29181  Biso   1.000  O
  O759     1.0000 0.87203  0.99808  0.13581  Biso   1.000  O
  O760     1.0000 0.86383  0.03268  0.07481  Biso   1.000  O
  O761     1.0000 0.85883  0.05108  0.04301  Biso   1.000  O
  O762     1.0000 0.85353  0.06678  0.01691  Biso   1.000  O
  O763     1.0000 0.85493  0.08318  0.98271  Biso   1.000  O
  O764     1.0000 0.84983  0.11468  0.92481  Biso   1.000  O
  O765     1.0000 0.84523  0.13288  0.89301  Biso   1.000  O
  O766     1.0000 0.84823  0.14608  0.86361  Biso   1.000  O
  O767     1.0000 0.84063  0.16508  0.83321  Biso   1.000  O
  O768     1.0000 0.83573  0.20298  0.76231  Biso   1.000  O
  O769     1.0000 0.83083  0.22128  0.73061  Biso   1.000  O
  O770     1.0000 0.00023  0.86988  0.46121  Biso   1.000  O
  O771     1.0000 0.03483  0.86168  0.49581  Biso   1.000  O
  O772     1.0000 0.05323  0.85668  0.51421  Biso   1.000  O
  O773     1.0000 0.06893  0.85138  0.52991  Biso   1.000  O
  O774     1.0000 0.08533  0.85278  0.54631  Biso   1.000  O
  O775     1.0000 0.11683  0.84768  0.57781  Biso   1.000  O
  O776     1.0000 0.13503  0.84308  0.59601  Biso   1.000  O
  O777     1.0000 0.14823  0.84608  0.60921  Biso   1.000  O
  O778     1.0000 0.16723  0.83848  0.62821  Biso   1.000  O
  O779     1.0000 0.20513  0.83358  0.66611  Biso   1.000  O
  O780     1.0000 0.22343  0.82868  0.68441  Biso   1.000  O
  O781     1.0000 0.09883  0.89948  0.23441  Biso   1.000  O
  O782     1.0000 0.15983  0.90768  0.19981  Biso   1.000  O
  O783     1.0000 0.19163  0.91268  0.18141  Biso   1.000  O
  O784     1.0000 0.21773  0.91798  0.16571  Biso   1.000  O
  O785     1.0000 0.25193  0.91658  0.14931  Biso   1.000  O
  O786     1.0000 0.30983  0.92168  0.11781  Biso   1.000  O
  O787     1.0000 0.34163  0.92628  0.09961  Biso   1.000  O
  O788     1.0000 0.37103  0.92328  0.08641  Biso   1.000  O
  O789     1.0000 0.40143  0.93088  0.06741  Biso   1.000  O
  O790     1.0000 0.47233  0.93578  0.02951  Biso   1.000  O
  O791     1.0000 0.50403  0.94068  0.01121  Biso   1.000  O
  O792     1.0000 0.77343  0.77128  0.55981  Biso   1.000  O
  O793     1.0000 0.73883  0.73668  0.62081  Biso   1.000  O
  O794     1.0000 0.72043  0.71828  0.65261  Biso   1.000  O
  O795     1.0000 0.70473  0.70258  0.67871  Biso   1.000  O
  O796     1.0000 0.68833  0.68618  0.71291  Biso   1.000  O
  O797     1.0000 0.65683  0.65468  0.77081  Biso   1.000  O
  O798     1.0000 0.63863  0.63648  0.80261  Biso   1.000  O
  O799     1.0000 0.62543  0.62328  0.83201  Biso   1.000  O
  O800     1.0000 0.60643  0.60428  0.86241  Biso   1.000  O
  O801     1.0000 0.56853  0.56638  0.93331  Biso   1.000  O
  O802     1.0000 0.55023  0.54808  0.96501  Biso   1.000  O
  O803     1.0000 0.77343  0.77128  0.36261  Biso   1.000  O
  O804     1.0000 0.73883  0.73668  0.37081  Biso   1.000  O
  O805     1.0000 0.72043  0.71828  0.37581  Biso   1.000  O
  O806     1.0000 0.70473  0.70258  0.38111  Biso   1.000  O
  O807     1.0000 0.68833  0.68618  0.37971  Biso   1.000  O
  O808     1.0000 0.65683  0.65468  0.38481  Biso   1.000  O
  O809     1.0000 0.63863  0.63648  0.38941  Biso   1.000  O
  O810     1.0000 0.62543  0.62328  0.38641  Biso   1.000  O
  O811     1.0000 0.60643  0.60428  0.39401  Biso   1.000  O
  O812     1.0000 0.56853  0.56638  0.39891  Biso   1.000  O
  O813     1.0000 0.55023  0.54808  0.40381  Biso   1.000  O
  O814     1.0000 0.90163  0.09668  0.23441  Biso   1.000  O
  O815     1.0000 0.90983  0.15768  0.19981  Biso   1.000  O
  O816     1.0000 0.91483  0.18948  0.18141  Biso   1.000  O
  O817     1.0000 0.92013  0.21558  0.16571  Biso   1.000  O
  O818     1.0000 0.91873  0.24978  0.14931  Biso   1.000  O
  O819     1.0000 0.92383  0.30768  0.11781  Biso   1.000  O
  O820     1.0000 0.92843  0.33948  0.09961  Biso   1.000  O
  O821     1.0000 0.92543  0.36888  0.08641  Biso   1.000  O
  O822     1.0000 0.93303  0.39928  0.06741  Biso   1.000  O
  O823     1.0000 0.93793  0.47018  0.02951  Biso   1.000  O
  O824     1.0000 0.94283  0.50188  0.01121  Biso   1.000  O
  O825     1.0000 0.77343  0.89948  0.55981  Biso   1.000  O
  O826     1.0000 0.73883  0.90768  0.62081  Biso   1.000  O
  O827     1.0000 0.72043  0.91268  0.65261  Biso   1.000  O
  O828     1.0000 0.70473  0.91798  0.67871  Biso   1.000  O
  O829     1.0000 0.68833  0.91658  0.71291  Biso   1.000  O
  O830     1.0000 0.65683  0.92168  0.77081  Biso   1.000  O
  O831     1.0000 0.63863  0.92628  0.80261  Biso   1.000  O
  O832     1.0000 0.62543  0.92328  0.83201  Biso   1.000  O
  O833     1.0000 0.60643  0.93088  0.86241  Biso   1.000  O
  O834     1.0000 0.56853  0.93578  0.93331  Biso   1.000  O
  O835     1.0000 0.55023  0.94068  0.96501  Biso   1.000  O
  O836     1.0000 0.90163  0.77128  0.23441  Biso   1.000  O
  O837     1.0000 0.90983  0.73668  0.19981  Biso   1.000  O
  O838     1.0000 0.91483  0.71828  0.18141  Biso   1.000  O
  O839     1.0000 0.92013  0.70258  0.16571  Biso   1.000  O
  O840     1.0000 0.91873  0.68618  0.14931  Biso   1.000  O
  O841     1.0000 0.92383  0.65468  0.11781  Biso   1.000  O
  O842     1.0000 0.92843  0.63648  0.09961  Biso   1.000  O
  O843     1.0000 0.92543  0.62328  0.08641  Biso   1.000  O
  O844     1.0000 0.93303  0.60428  0.06741  Biso   1.000  O
  O845     1.0000 0.93793  0.56638  0.02951  Biso   1.000  O
  O846     1.0000 0.94283  0.54808  0.01121  Biso   1.000  O
  O847     1.0000 0.09883  0.77128  0.23441  Biso   1.000  O
  O848     1.0000 0.15983  0.73668  0.19981  Biso   1.000  O
  O849     1.0000 0.19163  0.71828  0.18141  Biso   1.000  O
  O850     1.0000 0.21773  0.70258  0.16571  Biso   1.000  O
  O851     1.0000 0.25193  0.68618  0.14931  Biso   1.000  O
  O852     1.0000 0.30983  0.65468  0.11781  Biso   1.000  O
  O853     1.0000 0.34163  0.63648  0.09961  Biso   1.000  O
  O854     1.0000 0.37103  0.62328  0.08641  Biso   1.000  O
  O855     1.0000 0.40143  0.60428  0.06741  Biso   1.000  O
  O856     1.0000 0.47233  0.56638  0.02951  Biso   1.000  O
  O857     1.0000 0.50403  0.54808  0.01121  Biso   1.000  O
  O858     1.0000 0.77343  0.09668  0.36261  Biso   1.000  O
  O859     1.0000 0.73883  0.15768  0.37081  Biso   1.000  O
  O860     1.0000 0.72043  0.18948  0.37581  Biso   1.000  O
  O861     1.0000 0.70473  0.21558  0.38111  Biso   1.000  O
  O862     1.0000 0.68833  0.24978  0.37971  Biso   1.000  O
  O863     1.0000 0.65683  0.30768  0.38481  Biso   1.000  O
  O864     1.0000 0.63863  0.33948  0.38941  Biso   1.000  O
  O865     1.0000 0.62543  0.36888  0.38641  Biso   1.000  O
  O866     1.0000 0.60643  0.39928  0.39401  Biso   1.000  O
  O867     1.0000 0.56853  0.47018  0.39891  Biso   1.000  O
  O868     1.0000 0.55023  0.50188  0.40381  Biso   1.000  O
  O869     1.0000 0.77343  0.89948  0.23441  Biso   1.000  O
  O870     1.0000 0.73883  0.90768  0.19981  Biso   1.000  O
  O871     1.0000 0.72043  0.91268  0.18141  Biso   1.000  O
  O872     1.0000 0.70473  0.91798  0.16571  Biso   1.000  O
  O873     1.0000 0.68833  0.91658  0.14931  Biso   1.000  O
  O874     1.0000 0.65683  0.92168  0.11781  Biso   1.000  O
  O875     1.0000 0.63863  0.92628  0.09961  Biso   1.000  O
  O876     1.0000 0.62543  0.92328  0.08641  Biso   1.000  O
  O877     1.0000 0.60643  0.93088  0.06741  Biso   1.000  O
  O878     1.0000 0.56853  0.93578  0.02951  Biso   1.000  O
  O879     1.0000 0.55023  0.94068  0.01121  Biso   1.000  O
  O880     1.0000 0.09883  0.77128  0.36261  Biso   1.000  O
  O881     1.0000 0.15983  0.73668  0.37081  Biso   1.000  O
  O882     1.0000 0.19163  0.71828  0.37581  Biso   1.000  O
  O883     1.0000 0.21773  0.70258  0.38111  Biso   1.000  O
  O884     1.0000 0.25193  0.68618  0.37971  Biso   1.000  O
  O885     1.0000 0.30983  0.65468  0.38481  Biso   1.000  O
  O886     1.0000 0.34163  0.63648  0.38941  Biso   1.000  O
  O887     1.0000 0.37103  0.62328  0.38641  Biso   1.000  O
  O888     1.0000 0.40143  0.60428  0.39401  Biso   1.000  O
  O889     1.0000 0.47233  0.56638  0.39891  Biso   1.000  O
  O890     1.0000 0.50403  0.54808  0.40381  Biso   1.000  O
  O891     1.0000 0.90163  0.77128  0.55981  Biso   1.000  O
  O892     1.0000 0.90983  0.73668  0.62081  Biso   1.000  O
  O893     1.0000 0.91483  0.71828  0.65261  Biso   1.000  O
  O894     1.0000 0.92013  0.70258  0.67871  Biso   1.000  O
  O895     1.0000 0.91873  0.68618  0.71291  Biso   1.000  O
  O896     1.0000 0.92383  0.65468  0.77081  Biso   1.000  O
  O897     1.0000 0.92843  0.63648  0.80261  Biso   1.000  O
  O898     1.0000 0.92543  0.62328  0.83201  Biso   1.000  O
  O899     1.0000 0.93303  0.60428  0.86241  Biso   1.000  O
  O900     1.0000 0.93793  0.56638  0.93331  Biso   1.000  O
  O901     1.0000 0.94283  0.54808  0.96501  Biso   1.000  O
  O902     1.0000 0.77343  0.09668  0.23441  Biso   1.000  O
  O903     1.0000 0.73883  0.15768  0.19981  Biso   1.000  O
  O904     1.0000 0.72043  0.18948  0.18141  Biso   1.000  O
  O905     1.0000 0.70473  0.21558  0.16571  Biso   1.000  O
  O906     1.0000 0.68833  0.24978  0.14931  Biso   1.000  O
  O907     1.0000 0.65683  0.30768  0.11781  Biso   1.000  O
  O908     1.0000 0.63863  0.33948  0.09961  Biso   1.000  O
  O909     1.0000 0.62543  0.36888  0.08641  Biso   1.000  O
  O910     1.0000 0.60643  0.39928  0.06741  Biso   1.000  O
  O911     1.0000 0.56853  0.47018  0.02951  Biso   1.000  O
  O912     1.0000 0.55023  0.50188  0.01121  Biso   1.000  O
  O913     1.0000 0.25693  0.25478  0.66791  Biso   1.000  O
  O914     1.0000 0.20693  0.82438  0.71791  Biso   1.000  O
  O915     1.0000 0.25693  0.25478  0.28751  Biso   1.000  O
  O916     1.0000 0.82653  0.20478  0.71791  Biso   1.000  O
  O917     1.0000 0.25693  0.20478  0.71791  Biso   1.000  O
  O918     1.0000 0.82653  0.25478  0.66791  Biso   1.000  O
  O919     1.0000 0.25693  0.82438  0.71791  Biso   1.000  O
  O920     1.0000 0.20693  0.25478  0.28751  Biso   1.000  O
  O921     1.0000 0.20693  0.25478  0.71791  Biso   1.000  O
  O922     1.0000 0.25693  0.20478  0.28751  Biso   1.000  O
  O923     1.0000 0.82653  0.25478  0.71791  Biso   1.000  O
  O924     1.0000 0.25693  0.82438  0.66791  Biso   1.000  O
  O925     1.0000 0.51673  0.94498  0.02771  Biso   1.000  O
  O926     1.0000 0.56673  0.51458  0.97771  Biso   1.000  O
  O927     1.0000 0.51673  0.56458  0.40811  Biso   1.000  O
  O928     1.0000 0.94713  0.51458  0.97771  Biso   1.000  O
  O929     1.0000 0.51673  0.94498  0.97771  Biso   1.000  O
  O930     1.0000 0.94713  0.51458  0.02771  Biso   1.000  O
  O931     1.0000 0.51673  0.56458  0.97771  Biso   1.000  O
  O932     1.0000 0.56673  0.51458  0.40811  Biso   1.000  O
  O933     1.0000 0.56673  0.94498  0.97771  Biso   1.000  O
  O934     1.0000 0.51673  0.51458  0.40811  Biso   1.000  O
  O935     1.0000 0.94713  0.56458  0.97771  Biso   1.000  O
  O936     1.0000 0.51673  0.51458  0.02771  Biso   1.000  O
  O937     1.0000 0.65813  0.92718  0.54171  Biso   1.000  O
  O938     1.0000 0.70503  0.92748  0.49481  Biso   1.000  O
  O939     1.0000 0.08073  0.87698  0.11911  Biso   1.000  O
  O940     1.0000 0.03383  0.87668  0.16601  Biso   1.000  O
  O941     1.0000 0.92933  0.65598  0.34011  Biso   1.000  O
  O942     1.0000 0.92963  0.70288  0.33981  Biso   1.000  O
  O943     1.0000 0.87913  0.07858  0.39031  Biso   1.000  O
  O944     1.0000 0.87883  0.03168  0.39061  Biso   1.000  O
  O945     1.0000 0.92933  0.07858  0.11911  Biso   1.000  O
  O946     1.0000 0.92963  0.03168  0.16601  Biso   1.000  O
  O947     1.0000 0.87913  0.65598  0.54171  Biso   1.000  O
  O948     1.0000 0.87883  0.70288  0.49481  Biso   1.000  O
  O949     1.0000 0.65813  0.87698  0.39031  Biso   1.000  O
  O950     1.0000 0.70503  0.87668  0.39061  Biso   1.000  O
  O951     1.0000 0.08073  0.92718  0.34011  Biso   1.000  O
  O952     1.0000 0.03383  0.92748  0.33981  Biso   1.000  O
  O953     1.0000 0.08073  0.65598  0.39031  Biso   1.000  O
  O954     1.0000 0.03383  0.70288  0.39061  Biso   1.000  O
  O955     1.0000 0.65813  0.07858  0.34011  Biso   1.000  O
  O956     1.0000 0.70503  0.03168  0.33981  Biso   1.000  O
  O957     1.0000 0.87913  0.92718  0.11911  Biso   1.000  O
  O958     1.0000 0.87883  0.92748  0.16601  Biso   1.000  O
  O959     1.0000 0.92933  0.87698  0.54171  Biso   1.000  O
  O960     1.0000 0.92963  0.87668  0.49481  Biso   1.000  O
  O961     1.0000 0.11553  0.89238  0.15391  Biso   1.000  O
  O962     1.0000 0.06863  0.89268  0.20081  Biso   1.000  O
  O963     1.0000 0.69293  0.84218  0.57651  Biso   1.000  O
  O964     1.0000 0.73983  0.84188  0.52961  Biso   1.000  O
  O965     1.0000 0.84433  0.69078  0.35551  Biso   1.000  O
  O966     1.0000 0.84403  0.73768  0.35581  Biso   1.000  O
  O967     1.0000 0.89453  0.11338  0.30531  Biso   1.000  O
  O968     1.0000 0.89483  0.06648  0.30501  Biso   1.000  O
  O969     1.0000 0.84433  0.89238  0.57651  Biso   1.000  O
  O970     1.0000 0.84403  0.89268  0.52961  Biso   1.000  O
  O971     1.0000 0.89453  0.84218  0.15391  Biso   1.000  O
  O972     1.0000 0.89483  0.84188  0.20081  Biso   1.000  O
  O973     1.0000 0.11553  0.69078  0.30531  Biso   1.000  O
  O974     1.0000 0.06863  0.73768  0.30501  Biso   1.000  O
  O975     1.0000 0.69293  0.11338  0.35551  Biso   1.000  O
  O976     1.0000 0.73983  0.06648  0.35581  Biso   1.000  O
  O977     1.0000 0.69293  0.89238  0.30531  Biso   1.000  O
  O978     1.0000 0.73983  0.89268  0.30501  Biso   1.000  O
  O979     1.0000 0.11553  0.84218  0.35551  Biso   1.000  O
  O980     1.0000 0.06863  0.84188  0.35581  Biso   1.000  O
  O981     1.0000 0.89453  0.69078  0.57651  Biso   1.000  O
  O982     1.0000 0.89483  0.73768  0.52961  Biso   1.000  O
  O983     1.0000 0.84433  0.11338  0.15391  Biso   1.000  O
  O984     1.0000 0.84403  0.06648  0.20081  Biso   1.000  O
  O985     1.0000 0.11553  0.84218  0.15391  Biso   1.000  O
  O986     1.0000 0.06863  0.84188  0.20081  Biso   1.000  O
  O987     1.0000 0.69293  0.89238  0.57651  Biso   1.000  O
  O988     1.0000 0.73983  0.89268  0.52961  Biso   1.000  O
  O989     1.0000 0.84433  0.11338  0.35551  Biso   1.000  O
  O990     1.0000 0.84403  0.06648  0.35581  Biso   1.000  O
  O991     1.0000 0.89453  0.69078  0.30531  Biso   1.000  O
  O992     1.0000 0.89483  0.73768  0.30501  Biso   1.000  O
  O993     1.0000 0.84433  0.69078  0.57651  Biso   1.000  O
  O994     1.0000 0.84403  0.73768  0.52961  Biso   1.000  O
  O995     1.0000 0.89453  0.11338  0.15391  Biso   1.000  O
  O996     1.0000 0.89483  0.06648  0.20081  Biso   1.000  O
  O997     1.0000 0.11553  0.89238  0.30531  Biso   1.000  O
  O998     1.0000 0.06863  0.89268  0.30501  Biso   1.000  O
  O999     1.0000 0.69293  0.84218  0.35551  Biso   1.000  O
  O1000    1.0000 0.73983  0.84188  0.35581  Biso   1.000  O
  O1001    1.0000 0.69293  0.11338  0.30531  Biso   1.000  O
  O1002    1.0000 0.73983  0.06648  0.30501  Biso   1.000  O
  O1003    1.0000 0.11553  0.69078  0.35551  Biso   1.000  O
  O1004    1.0000 0.06863  0.73768  0.35581  Biso   1.000  O
  O1005    1.0000 0.89453  0.84218  0.57651  Biso   1.000  O
  O1006    1.0000 0.89483  0.84188  0.52961  Biso   1.000  O
  O1007    1.0000 0.84433  0.89238  0.15391  Biso   1.000  O
  O1008    1.0000 0.84403  0.89268  0.20081  Biso   1.000  O
  O1009    1.0000 0.65813  0.87698  0.54171  Biso   1.000  O
  O1010    1.0000 0.70503  0.87668  0.49481  Biso   1.000  O
  O1011    1.0000 0.08073  0.92718  0.11911  Biso   1.000  O
  O1012    1.0000 0.03383  0.92748  0.16601  Biso   1.000  O
  O1013    1.0000 0.92933  0.07858  0.34011  Biso   1.000  O
  O1014    1.0000 0.92963  0.03168  0.33981  Biso   1.000  O
  O1015    1.0000 0.87913  0.65598  0.39031  Biso   1.000  O
  O1016    1.0000 0.87883  0.70288  0.39061  Biso   1.000  O
  O1017    1.0000 0.92933  0.87698  0.11911  Biso   1.000  O
  O1018    1.0000 0.92963  0.87668  0.16601  Biso   1.000  O
  O1019    1.0000 0.87913  0.92718  0.54171  Biso   1.000  O
  O1020    1.0000 0.87883  0.92748  0.49481  Biso   1.000  O
  O1021    1.0000 0.65813  0.07858  0.39031  Biso   1.000  O
  O1022    1.0000 0.70503  0.03168  0.39061  Biso   1.000  O
  O1023    1.0000 0.08073  0.65598  0.34011  Biso   1.000  O
  O1024    1.0000 0.03383  0.70288  0.33981  Biso   1.000  O
  O1025    1.0000 0.08073  0.87698  0.39031  Biso   1.000  O
  O1026    1.0000 0.03383  0.87668  0.39061  Biso   1.000  O
  O1027    1.0000 0.65813  0.92718  0.34011  Biso   1.000  O
  O1028    1.0000 0.70503  0.92748  0.33981  Biso   1.000  O
  O1029    1.0000 0.87913  0.07858  0.11911  Biso   1.000  O
  O1030    1.0000 0.87883  0.03168  0.16601  Biso   1.000  O
  O1031    1.0000 0.92933  0.65598  0.54171  Biso   1.000  O
