data_image0
_cell_length_a       25.3468
_cell_length_b       25.3468
_cell_length_c       25.3468
_cell_angle_alpha    90
_cell_angle_beta     90
_cell_angle_gamma    90

_symmetry_space_group_name_H-M    "P 1"
_symmetry_int_tables_number       1

loop_
  _symmetry_equiv_pos_as_xyz
  'x, y, z'

loop_
  _atom_site_label
  _atom_site_occupancy
  _atom_site_fract_x
  _atom_site_fract_y
  _atom_site_fract_z
  _atom_site_thermal_displace_type
  _atom_site_B_iso_or_equiv
  _atom_site_type_symbol
  C1       1.0000 0.45685  0.99155  0.38894  Biso   1.000  C
  C2       1.0000 0.47455  0.99203  0.33433  Biso   1.000  C
  H1       1.0000 0.45125  0.99286  0.29857  Biso   1.000  H
  C3       1.0000 0.39191  0.98855  0.45860  Biso   1.000  C
  C4       1.0000 0.33649  0.98304  0.47428  Biso   1.000  C
  H2       1.0000 0.30237  0.97972  0.44885  Biso   1.000  H
  C5       1.0000 0.40645  0.99090  0.40293  Biso   1.000  C
  C6       1.0000 0.61115  0.99534  0.45688  Biso   1.000  C
  C7       1.0000 0.66562  0.99978  0.47445  Biso   1.000  C
  H3       1.0000 0.70121  0.00222  0.45097  Biso   1.000  H
  C8       1.0000 0.54160  0.99096  0.39187  Biso   1.000  C
  C9       1.0000 0.52583  0.99068  0.33621  Biso   1.000  C
  H4       1.0000 0.55111  0.98990  0.30184  Biso   1.000  H
  C10      1.0000 0.59729  0.99243  0.40655  Biso   1.000  C
  N1       1.0000 0.50124  0.99121  0.42426  Biso   1.000  N
  C11      1.0000 0.38911  0.98637  0.54328  Biso   1.000  C
  C12      1.0000 0.33472  0.98152  0.52558  Biso   1.000  C
  H5       1.0000 0.29927  0.97699  0.54895  Biso   1.000  H
  C13      1.0000 0.45850  0.99268  0.60831  Biso   1.000  C
  C14      1.0000 0.47416  0.99499  0.66396  Biso   1.000  C
  H6       1.0000 0.44882  0.99495  0.69830  Biso   1.000  H
  C15      1.0000 0.40292  0.98870  0.59366  Biso   1.000  C
  N2       1.0000 0.42430  0.98956  0.49893  Biso   1.000  N
  C16      1.0000 0.54314  0.99698  0.61124  Biso   1.000  C
  C17      1.0000 0.52542  0.99691  0.66585  Biso   1.000  C
  H7       1.0000 0.54868  0.99821  0.70162  Biso   1.000  H
  C18      1.0000 0.60815  0.99805  0.54154  Biso   1.000  C
  C19      1.0000 0.66369  0.00156  0.52572  Biso   1.000  C
  H8       1.0000 0.69784  0.00572  0.55099  Biso   1.000  H
  Ni1      1.0000 0.50005  0.99256  0.50009  Biso   1.000  Ni
  C20      1.0000 0.59353  0.99818  0.59726  Biso   1.000  C
  N3       1.0000 0.49883  0.99415  0.57593  Biso   1.000  N
  N4       1.0000 0.57582  0.99534  0.50125  Biso   1.000  N
  C21      1.0000 0.38919  0.44928  0.00543  Biso   1.000  C
  C22      1.0000 0.33486  0.46702  0.01084  Biso   1.000  C
  H9       1.0000 0.29947  0.44369  0.01598  Biso   1.000  H
  C23      1.0000 0.45845  0.38440  0.99698  Biso   1.000  C
  C24      1.0000 0.47393  0.32909  0.98998  Biso   1.000  C
  H10      1.0000 0.44840  0.29505  0.98671  Biso   1.000  H
  C25      1.0000 0.40295  0.39891  0.00233  Biso   1.000  C
  C26      1.0000 0.45696  0.60357  0.99975  Biso   1.000  C
  C27      1.0000 0.47472  0.65815  0.99870  Biso   1.000  C
  H11      1.0000 0.45146  0.69389  0.99667  Biso   1.000  H
  C28      1.0000 0.39196  0.53396  0.00263  Biso   1.000  C
  C29      1.0000 0.33660  0.51830  0.00873  Biso   1.000  C
  H12      1.0000 0.30251  0.54375  0.01222  Biso   1.000  H
  C30      1.0000 0.40654  0.58962  0.00012  Biso   1.000  C
  N5       1.0000 0.42432  0.49363  0.00161  Biso   1.000  N
  C31      1.0000 0.54307  0.38160  0.99256  Biso   1.000  C
  C32      1.0000 0.52519  0.32732  0.98715  Biso   1.000  C
  H13      1.0000 0.54843  0.29195  0.98142  Biso   1.000  H
  C33      1.0000 0.60826  0.45085  0.99881  Biso   1.000  C
  C34      1.0000 0.66390  0.46642  0.00184  Biso   1.000  C
  H14      1.0000 0.69820  0.44103  0.00199  Biso   1.000  H
  C35      1.0000 0.59350  0.39531  0.99458  Biso   1.000  C
  N6       1.0000 0.49884  0.41672  0.99749  Biso   1.000  N
  C36      1.0000 0.61125  0.53546  0.00390  Biso   1.000  C
  C37      1.0000 0.66583  0.51766  0.00448  Biso   1.000  C
  H15      1.0000 0.70159  0.54089  0.00653  Biso   1.000  H
  C38      1.0000 0.54167  0.60061  0.00260  Biso   1.000  C
  C39      1.0000 0.52595  0.65628  0.00140  Biso   1.000  C
  H16      1.0000 0.55124  0.69064  0.00225  Biso   1.000  H
  Ni2      1.0000 0.50011  0.49246  0.00030  Biso   1.000  Ni
  C40      1.0000 0.59736  0.58588  0.00427  Biso   1.000  C
  N7       1.0000 0.57593  0.49122  0.00029  Biso   1.000  N
  N8       1.0000 0.50131  0.56826  0.00182  Biso   1.000  N
  C41      1.0000 0.99687  0.38129  0.45691  Biso   1.000  C
  C42      1.0000 0.99147  0.32695  0.47461  Biso   1.000  C
  H17      1.0000 0.98732  0.29147  0.45121  Biso   1.000  H
  C43      1.0000 0.00310  0.45072  0.39196  Biso   1.000  C
  C44      1.0000 0.00861  0.46643  0.33654  Biso   1.000  C
  H18      1.0000 0.01289  0.44105  0.30250  Biso   1.000  H
  C45      1.0000 0.00017  0.39507  0.40657  Biso   1.000  C
  C46      1.0000 0.00341  0.44923  0.61103  Biso   1.000  C
  C47      1.0000 0.00895  0.46693  0.66536  Biso   1.000  C
  H19      1.0000 0.01323  0.44354  0.70082  Biso   1.000  H
  C48      1.0000 0.99706  0.38428  0.54162  Biso   1.000  C
  C49      1.0000 0.99163  0.32885  0.52593  Biso   1.000  C
  H20      1.0000 0.98750  0.29480  0.55132  Biso   1.000  H
  C50      1.0000 0.00011  0.39890  0.59726  Biso   1.000  C
  N9       1.0000 0.99919  0.41654  0.50125  Biso   1.000  N
  C51      1.0000 0.00310  0.53544  0.38897  Biso   1.000  C
  C52      1.0000 0.00866  0.51775  0.33464  Biso   1.000  C
  H21      1.0000 0.01284  0.54116  0.29917  Biso   1.000  H
  C53      1.0000 0.99650  0.60036  0.45839  Biso   1.000  C
  C54      1.0000 0.99079  0.65576  0.47410  Biso   1.000  C
  H22      1.0000 0.98644  0.68979  0.44871  Biso   1.000  H
  C55      1.0000 0.99961  0.58577  0.40275  Biso   1.000  C
  N10      1.0000 0.00082  0.49109  0.42422  Biso   1.000  N
  C56      1.0000 0.99638  0.60335  0.54311  Biso   1.000  C
  C57      1.0000 0.99067  0.65766  0.52542  Biso   1.000  C
  H23      1.0000 0.98635  0.69312  0.54882  Biso   1.000  H
  C58      1.0000 0.00310  0.53395  0.60805  Biso   1.000  C
  C59      1.0000 0.00874  0.51826  0.66346  Biso   1.000  C
  H24      1.0000 0.01296  0.54365  0.69750  Biso   1.000  H
  Ni3      1.0000 0.99994  0.49233  0.50001  Biso   1.000  Ni
  C60      1.0000 0.99988  0.58959  0.59344  Biso   1.000  C
  N11      1.0000 0.99882  0.56811  0.49876  Biso   1.000  N
  N12      1.0000 0.00094  0.49358  0.57579  Biso   1.000  N
  O1       1.0000 0.86397  0.99504  0.92811  Biso   1.000  O
  O2       1.0000 0.13617  0.98978  0.92828  Biso   1.000  O
  O3       1.0000 0.99912  0.06384  0.86369  Biso   1.000  O
  O4       1.0000 0.00205  0.92028  0.86411  Biso   1.000  O
  O5       1.0000 0.00049  0.85600  0.92851  Biso   1.000  O
  O6       1.0000 0.99822  0.12830  0.92792  Biso   1.000  O
  O7       1.0000 0.07181  0.99070  0.86394  Biso   1.000  O
  O8       1.0000 0.92836  0.99357  0.86379  Biso   1.000  O
  Zr1      1.0000 0.00008  0.99217  0.90688  Biso   1.000  Zr
  O9       1.0000 0.04785  0.94422  0.95223  Biso   1.000  O
  O10      1.0000 0.95213  0.04024  0.95192  Biso   1.000  O
  C61      1.0000 0.87939  0.99518  0.87914  Biso   1.000  C
  C62      1.0000 0.12076  0.98943  0.87929  Biso   1.000  C
  C63      1.0000 0.99808  0.11284  0.87898  Biso   1.000  C
  C64      1.0000 0.00188  0.87131  0.87953  Biso   1.000  C
  H25      1.0000 0.07038  0.06224  0.92987  Biso   1.000  H
  O11      1.0000 0.04773  0.03982  0.95236  Biso   1.000  O
  H26      1.0000 0.92960  0.92226  0.92997  Biso   1.000  H
  O12      1.0000 0.95223  0.94473  0.95243  Biso   1.000  O
  O13      1.0000 0.13617  0.99318  0.07181  Biso   1.000  O
  O14      1.0000 0.86383  0.99157  0.07179  Biso   1.000  O
  O15      1.0000 0.07181  0.12840  0.00112  Biso   1.000  O
  O16      1.0000 0.07152  0.85607  0.99808  Biso   1.000  O
  O17      1.0000 0.92789  0.85641  0.00275  Biso   1.000  O
  O18      1.0000 0.92821  0.12858  0.99724  Biso   1.000  O
  O19      1.0000 0.00199  0.06442  0.13594  Biso   1.000  O
  O20      1.0000 0.99896  0.92083  0.13634  Biso   1.000  O
  O21      1.0000 0.00101  0.12869  0.07148  Biso   1.000  O
  O22      1.0000 0.99785  0.85639  0.07206  Biso   1.000  O
  O23      1.0000 0.13615  0.06402  0.00224  Biso   1.000  O
  O24      1.0000 0.86386  0.06426  0.99851  Biso   1.000  O
  O25      1.0000 0.86362  0.92086  0.00127  Biso   1.000  O
  O26      1.0000 0.13597  0.92035  0.99907  Biso   1.000  O
  O27      1.0000 0.07184  0.99459  0.13617  Biso   1.000  O
  O28      1.0000 0.92824  0.99055  0.13612  Biso   1.000  O
  Zr2      1.0000 0.09314  0.99218  0.00009  Biso   1.000  Zr
  Zr3      1.0000 0.90681  0.99255  0.99998  Biso   1.000  Zr
  Zr4      1.0000 0.99999  0.08551  0.99978  Biso   1.000  Zr
  Zr5      1.0000 0.99974  0.89919  0.00019  Biso   1.000  Zr
  Zr6      1.0000 0.00004  0.99254  0.09317  Biso   1.000  Zr
  O29      1.0000 0.95196  0.94466  0.04802  Biso   1.000  O
  O30      1.0000 0.04794  0.04034  0.04782  Biso   1.000  O
  C65      1.0000 0.12082  0.99449  0.12077  Biso   1.000  C
  C66      1.0000 0.87925  0.99042  0.12075  Biso   1.000  C
  C67      1.0000 0.12078  0.11302  0.00246  Biso   1.000  C
  C68      1.0000 0.12053  0.87141  0.99791  Biso   1.000  C
  C69      1.0000 0.87895  0.87188  0.00289  Biso   1.000  C
  C70      1.0000 0.87922  0.11320  0.99698  Biso   1.000  C
  C71      1.0000 0.00217  0.11338  0.12048  Biso   1.000  C
  C72      1.0000 0.99772  0.87184  0.12103  Biso   1.000  C
  H27      1.0000 0.92988  0.06276  0.07000  Biso   1.000  H
  O31      1.0000 0.95239  0.04016  0.04756  Biso   1.000  O
  H28      1.0000 0.06996  0.92214  0.07027  Biso   1.000  H
  O32      1.0000 0.04750  0.94469  0.04773  Biso   1.000  O
  C73      1.0000 0.28362  0.99293  0.28352  Biso   1.000  C
  C74      1.0000 0.31730  0.94909  0.28891  Biso   1.000  C
  C75      1.0000 0.35658  0.94816  0.32789  Biso   1.000  C
  C76      1.0000 0.36382  0.99144  0.36181  Biso   1.000  C
  C77      1.0000 0.33018  0.03520  0.35665  Biso   1.000  C
  C78      1.0000 0.29032  0.03582  0.31818  Biso   1.000  C
  C79      1.0000 0.24192  0.99392  0.24177  Biso   1.000  C
  C80      1.0000 0.19050  0.01149  0.25318  Biso   1.000  C
  C81      1.0000 0.15122  0.01156  0.21411  Biso   1.000  C
  C82      1.0000 0.16255  0.99488  0.16234  Biso   1.000  C
  C83      1.0000 0.21419  0.97793  0.15083  Biso   1.000  C
  C84      1.0000 0.25319  0.97709  0.19010  Biso   1.000  C
  H29      1.0000 0.38168  0.91376  0.33143  Biso   1.000  H
  H30      1.0000 0.33490  0.06896  0.38241  Biso   1.000  H
  H31      1.0000 0.11200  0.02501  0.22440  Biso   1.000  H
  H32      1.0000 0.22437  0.96461  0.11153  Biso   1.000  H
  H33      1.0000 0.26530  0.07029  0.31490  Biso   1.000  H
  H34      1.0000 0.18041  0.02437  0.29264  Biso   1.000  H
  H35      1.0000 0.31280  0.91518  0.26333  Biso   1.000  H
  H36      1.0000 0.29248  0.96378  0.17986  Biso   1.000  H
  C85      1.0000 0.71727  0.99077  0.28431  Biso   1.000  C
  C86      1.0000 0.71103  0.94755  0.31864  Biso   1.000  C
  C87      1.0000 0.67195  0.94793  0.35785  Biso   1.000  C
  C88      1.0000 0.63867  0.99183  0.36420  Biso   1.000  C
  C89      1.0000 0.64515  0.03526  0.33035  Biso   1.000  C
  C90      1.0000 0.68367  0.03456  0.29058  Biso   1.000  C
  C91      1.0000 0.75868  0.99024  0.24227  Biso   1.000  C
  C92      1.0000 0.74714  0.00751  0.19079  Biso   1.000  C
  C93      1.0000 0.78596  0.00693  0.15131  Biso   1.000  C
  C94      1.0000 0.83764  0.98986  0.16244  Biso   1.000  C
  C95      1.0000 0.84922  0.97282  0.21403  Biso   1.000  C
  C96      1.0000 0.81016  0.97262  0.25328  Biso   1.000  C
  H37      1.0000 0.66769  0.91398  0.38345  Biso   1.000  H
  H38      1.0000 0.62019  0.06966  0.33469  Biso   1.000  H
  H39      1.0000 0.77562  0.02054  0.11214  Biso   1.000  H
  H40      1.0000 0.88849  0.95927  0.22404  Biso   1.000  H
  H41      1.0000 0.68778  0.06868  0.26520  Biso   1.000  H
  H42      1.0000 0.70781  0.02092  0.18088  Biso   1.000  H
  H43      1.0000 0.73594  0.91307  0.31462  Biso   1.000  H
  H44      1.0000 0.82046  0.95945  0.29259  Biso   1.000  H
  C97      1.0000 0.71629  0.99849  0.71674  Biso   1.000  C
  C98      1.0000 0.70937  0.95487  0.68308  Biso   1.000  C
  C99      1.0000 0.66951  0.95477  0.64467  Biso   1.000  C
  C100     1.0000 0.63611  0.99858  0.63843  Biso   1.000  C
  C101     1.0000 0.64339  0.04251  0.67150  Biso   1.000  C
  C102     1.0000 0.68269  0.04228  0.71052  Biso   1.000  C
  C103     1.0000 0.75823  0.99818  0.75825  Biso   1.000  C
  C104     1.0000 0.74730  0.01543  0.80986  Biso   1.000  C
  C105     1.0000 0.78641  0.01423  0.84906  Biso   1.000  C
  C106     1.0000 0.83778  0.99655  0.83747  Biso   1.000  C
  C107     1.0000 0.84885  0.97989  0.78565  Biso   1.000  C
  C108     1.0000 0.80949  0.98028  0.74670  Biso   1.000  C
  H45      1.0000 0.66464  0.92044  0.61970  Biso   1.000  H
  H46      1.0000 0.61835  0.07687  0.66725  Biso   1.000  H
  H47      1.0000 0.77647  0.02754  0.88842  Biso   1.000  H
  H48      1.0000 0.88785  0.96587  0.77528  Biso   1.000  H
  H49      1.0000 0.68730  0.07668  0.73543  Biso   1.000  H
  H50      1.0000 0.70814  0.02907  0.82016  Biso   1.000  H
  H51      1.0000 0.73426  0.92038  0.68710  Biso   1.000  H
  H52      1.0000 0.81933  0.96712  0.70726  Biso   1.000  H
  C109     1.0000 0.28296  0.98773  0.71593  Biso   1.000  C
  C110     1.0000 0.31784  0.94488  0.71007  Biso   1.000  C
  C111     1.0000 0.35640  0.94496  0.67030  Biso   1.000  C
  C112     1.0000 0.36154  0.98824  0.63601  Biso   1.000  C
  C113     1.0000 0.32711  0.03128  0.64212  Biso   1.000  C
  C114     1.0000 0.28806  0.03087  0.68132  Biso   1.000  C
  C115     1.0000 0.24135  0.98751  0.75778  Biso   1.000  C
  C116     1.0000 0.18962  0.00407  0.74635  Biso   1.000  C
  C117     1.0000 0.15054  0.00413  0.78552  Biso   1.000  C
  C118     1.0000 0.16226  0.98837  0.83749  Biso   1.000  C
  C119     1.0000 0.21408  0.97195  0.84897  Biso   1.000  C
  C120     1.0000 0.25298  0.97114  0.80954  Biso   1.000  C
  H53      1.0000 0.38239  0.91129  0.66626  Biso   1.000  H
  H54      1.0000 0.33045  0.06517  0.61632  Biso   1.000  H
  H55      1.0000 0.11119  0.01718  0.77518  Biso   1.000  H
  H56      1.0000 0.22453  0.95937  0.88845  Biso   1.000  H
  H57      1.0000 0.26225  0.06470  0.68507  Biso   1.000  H
  H58      1.0000 0.17921  0.01648  0.70681  Biso   1.000  H
  H59      1.0000 0.31470  0.91088  0.73575  Biso   1.000  H
  H60      1.0000 0.29250  0.95852  0.81976  Biso   1.000  H
  C121     1.0000 0.28328  0.27627  0.00358  Biso   1.000  C
  C122     1.0000 0.28679  0.31229  0.96144  Biso   1.000  C
  C123     1.0000 0.32573  0.35159  0.96090  Biso   1.000  C
  C124     1.0000 0.36166  0.35644  0.00287  Biso   1.000  C
  C125     1.0000 0.35831  0.32058  0.04502  Biso   1.000  C
  C126     1.0000 0.31979  0.28075  0.04523  Biso   1.000  C
  C127     1.0000 0.24161  0.23444  0.00399  Biso   1.000  C
  C128     1.0000 0.25357  0.18230  0.01888  Biso   1.000  C
  C129     1.0000 0.21458  0.14293  0.01825  Biso   1.000  C
  C130     1.0000 0.16236  0.15480  0.00344  Biso   1.000  C
  C131     1.0000 0.15033  0.20713  0.98916  Biso   1.000  C
  C132     1.0000 0.18946  0.24627  0.98911  Biso   1.000  C
  H61      1.0000 0.32778  0.37848  0.92776  Biso   1.000  H
  H62      1.0000 0.38558  0.32349  0.07778  Biso   1.000  H
  H63      1.0000 0.22534  0.10319  0.02965  Biso   1.000  H
  H64      1.0000 0.11067  0.21783  0.97741  Biso   1.000  H
  H65      1.0000 0.31797  0.25395  0.07845  Biso   1.000  H
  H66      1.0000 0.29340  0.17173  0.03017  Biso   1.000  H
  H67      1.0000 0.25979  0.30959  0.92844  Biso   1.000  H
  H68      1.0000 0.17874  0.28609  0.97793  Biso   1.000  H
  C133     1.0000 0.28358  0.70889  0.99843  Biso   1.000  C
  C134     1.0000 0.28990  0.67399  0.95567  Biso   1.000  C
  C135     1.0000 0.32984  0.63560  0.95611  Biso   1.000  C
  C136     1.0000 0.36394  0.63077  0.99956  Biso   1.000  C
  C137     1.0000 0.35707  0.66495  0.04270  Biso   1.000  C
  C138     1.0000 0.31772  0.70384  0.04194  Biso   1.000  C
  C139     1.0000 0.24179  0.75056  0.99768  Biso   1.000  C
  C140     1.0000 0.25316  0.80232  0.01417  Biso   1.000  C
  C141     1.0000 0.21408  0.84150  0.01364  Biso   1.000  C
  C142     1.0000 0.16227  0.82984  0.99735  Biso   1.000  C
  C143     1.0000 0.15084  0.77799  0.98101  Biso   1.000  C
  C144     1.0000 0.19019  0.73898  0.98077  Biso   1.000  C
  H69      1.0000 0.33424  0.60961  0.92248  Biso   1.000  H
  H70      1.0000 0.38249  0.66164  0.07688  Biso   1.000  H
  H71      1.0000 0.22436  0.88087  0.02667  Biso   1.000  H
  H72      1.0000 0.11147  0.76758  0.96805  Biso   1.000  H
  H73      1.0000 0.31351  0.72960  0.07576  Biso   1.000  H
  H74      1.0000 0.29258  0.81269  0.02697  Biso   1.000  H
  H75      1.0000 0.26451  0.67702  0.92145  Biso   1.000  H
  H76      1.0000 0.18002  0.69945  0.96818  Biso   1.000  H
  C145     1.0000 0.71701  0.70843  0.00532  Biso   1.000  C
  C146     1.0000 0.68507  0.70017  0.96066  Biso   1.000  C
  C147     1.0000 0.64670  0.66028  0.96028  Biso   1.000  C
  C148     1.0000 0.63866  0.62832  0.00486  Biso   1.000  C
  C149     1.0000 0.67017  0.63677  0.04972  Biso   1.000  C
  C150     1.0000 0.70922  0.67606  0.04978  Biso   1.000  C
  C151     1.0000 0.75834  0.75051  0.00538  Biso   1.000  C
  C152     1.0000 0.80950  0.74009  0.02422  Biso   1.000  C
  C153     1.0000 0.84861  0.77929  0.02321  Biso   1.000  C
  C154     1.0000 0.83732  0.83026  0.00422  Biso   1.000  C
  C155     1.0000 0.78591  0.84086  0.98608  Biso   1.000  C
  C156     1.0000 0.74709  0.80137  0.98621  Biso   1.000  C
  H77      1.0000 0.62307  0.65436  0.92517  Biso   1.000  H
  H78      1.0000 0.66463  0.61271  0.08459  Biso   1.000  H
  H79      1.0000 0.88766  0.76976  0.03769  Biso   1.000  H
  H80      1.0000 0.77582  0.87955  0.97102  Biso   1.000  H
  H81      1.0000 0.73287  0.68167  0.08491  Biso   1.000  H
  H82      1.0000 0.81954  0.70124  0.03891  Biso   1.000  H
  H83      1.0000 0.69040  0.72406  0.92564  Biso   1.000  H
  H84      1.0000 0.70799  0.81077  0.97180  Biso   1.000  H
  C157     1.0000 0.71576  0.27531  0.99393  Biso   1.000  C
  C158     1.0000 0.71032  0.31044  0.95123  Biso   1.000  C
  C159     1.0000 0.67051  0.34900  0.95114  Biso   1.000  C
  C160     1.0000 0.63577  0.35383  0.99408  Biso   1.000  C
  C161     1.0000 0.64146  0.31912  0.03696  Biso   1.000  C
  C162     1.0000 0.68069  0.28012  0.03673  Biso   1.000  C
  C163     1.0000 0.75765  0.23372  0.99398  Biso   1.000  C
  C164     1.0000 0.74612  0.18198  0.01043  Biso   1.000  C
  C165     1.0000 0.78533  0.14294  0.01088  Biso   1.000  C
  C166     1.0000 0.83743  0.15470  0.99560  Biso   1.000  C
  C167     1.0000 0.84901  0.20652  0.97925  Biso   1.000  C
  C168     1.0000 0.80955  0.24540  0.97807  Biso   1.000  C
  H85      1.0000 0.66684  0.37523  0.91762  Biso   1.000  H
  H86      1.0000 0.61534  0.32225  0.07063  Biso   1.000  H
  H87      1.0000 0.77489  0.10358  0.02383  Biso   1.000  H
  H88      1.0000 0.88859  0.21700  0.96701  Biso   1.000  H
  H89      1.0000 0.68412  0.25414  0.07046  Biso   1.000  H
  H90      1.0000 0.70648  0.17152  0.02246  Biso   1.000  H
  H91      1.0000 0.73636  0.30754  0.91750  Biso   1.000  H
  H92      1.0000 0.81986  0.28492  0.96555  Biso   1.000  H
  C169     1.0000 0.00179  0.27544  0.28400  Biso   1.000  C
  C170     1.0000 0.04381  0.27982  0.32006  Biso   1.000  C
  C171     1.0000 0.04340  0.31874  0.35941  Biso   1.000  C
  C172     1.0000 0.00065  0.35374  0.36418  Biso   1.000  C
  C173     1.0000 0.95852  0.34932  0.32842  Biso   1.000  C
  C174     1.0000 0.95923  0.31086  0.28858  Biso   1.000  C
  C175     1.0000 0.00232  0.23402  0.24195  Biso   1.000  C
  C176     1.0000 0.98697  0.24603  0.18998  Biso   1.000  C
  C177     1.0000 0.98755  0.20718  0.15053  Biso   1.000  C
  C178     1.0000 0.00279  0.15504  0.16213  Biso   1.000  C
  C179     1.0000 0.01801  0.14302  0.21419  Biso   1.000  C
  C180     1.0000 0.01812  0.18206  0.25345  Biso   1.000  C
  H93      1.0000 0.07646  0.32155  0.38633  Biso   1.000  H
  H94      1.0000 0.92508  0.37575  0.33138  Biso   1.000  H
  H95      1.0000 0.97542  0.21792  0.11099  Biso   1.000  H
  H96      1.0000 0.03014  0.10340  0.22462  Biso   1.000  H
  H97      1.0000 0.92604  0.30826  0.26181  Biso   1.000  H
  H98      1.0000 0.97505  0.28574  0.17966  Biso   1.000  H
  H99      1.0000 0.07741  0.25359  0.31733  Biso   1.000  H
  H100     1.0000 0.02978  0.17135  0.29313  Biso   1.000  H
  C181     1.0000 0.99868  0.27634  0.71691  Biso   1.000  C
  C182     1.0000 0.04123  0.28097  0.68148  Biso   1.000  C
  C183     1.0000 0.04188  0.32081  0.64302  Biso   1.000  C
  C184     1.0000 0.99971  0.35651  0.63860  Biso   1.000  C
  C185     1.0000 0.95696  0.35168  0.67360  Biso   1.000  C
  C186     1.0000 0.95661  0.31233  0.71251  Biso   1.000  C
  C187     1.0000 0.99819  0.23430  0.75834  Biso   1.000  C
  C188     1.0000 0.98225  0.24578  0.81026  Biso   1.000  C
  C189     1.0000 0.98230  0.20653  0.84929  Biso   1.000  C
  C190     1.0000 0.99760  0.15449  0.83732  Biso   1.000  C
  C191     1.0000 0.01306  0.14290  0.78524  Biso   1.000  C
  C192     1.0000 0.01370  0.18235  0.74639  Biso   1.000  C
  H101     1.0000 0.07531  0.32381  0.61658  Biso   1.000  H
  H102     1.0000 0.92387  0.37857  0.67079  Biso   1.000  H
  H103     1.0000 0.97003  0.21694  0.88888  Biso   1.000  H
  H104     1.0000 0.02531  0.10338  0.77456  Biso   1.000  H
  H105     1.0000 0.92301  0.30956  0.73874  Biso   1.000  H
  H106     1.0000 0.97049  0.28544  0.82093  Biso   1.000  H
  H107     1.0000 0.07446  0.25425  0.68408  Biso   1.000  H
  H108     1.0000 0.02575  0.17204  0.70672  Biso   1.000  H
  C193     1.0000 0.00137  0.70924  0.71600  Biso   1.000  C
  C194     1.0000 0.95900  0.67357  0.71164  Biso   1.000  C
  C195     1.0000 0.95832  0.63512  0.67179  Biso   1.000  C
  C196     1.0000 0.00030  0.63093  0.63583  Biso   1.000  C
  C197     1.0000 0.04288  0.66618  0.64041  Biso   1.000  C
  C198     1.0000 0.04324  0.70510  0.67975  Biso   1.000  C
  C199     1.0000 0.00187  0.75066  0.75804  Biso   1.000  C
  C200     1.0000 0.01713  0.80275  0.74640  Biso   1.000  C
  C201     1.0000 0.01705  0.84178  0.78566  Biso   1.000  C
  C202     1.0000 0.00240  0.82966  0.83785  Biso   1.000  C
  C203     1.0000 0.98766  0.77739  0.84959  Biso   1.000  C
  C204     1.0000 0.98704  0.73854  0.81014  Biso   1.000  C
  H109     1.0000 0.92502  0.60849  0.66898  Biso   1.000  H
  H110     1.0000 0.07583  0.66356  0.61333  Biso   1.000  H
  H111     1.0000 0.02876  0.88150  0.77510  Biso   1.000  H
  H112     1.0000 0.97599  0.76655  0.88923  Biso   1.000  H
  H113     1.0000 0.07669  0.73154  0.68231  Biso   1.000  H
  H114     1.0000 0.02837  0.81354  0.70662  Biso   1.000  H
  H115     1.0000 0.92593  0.67597  0.73857  Biso   1.000  H
  H116     1.0000 0.97553  0.69873  0.82055  Biso   1.000  H
  C205     1.0000 0.99794  0.70835  0.28312  Biso   1.000  C
  C206     1.0000 0.95604  0.67214  0.28736  Biso   1.000  C
  C207     1.0000 0.95645  0.63279  0.32628  Biso   1.000  C
  C208     1.0000 0.99911  0.62816  0.36142  Biso   1.000  C
  C209     1.0000 0.04113  0.66408  0.35714  Biso   1.000  C
  C210     1.0000 0.04039  0.70393  0.31869  Biso   1.000  C
  C211     1.0000 0.99740  0.75040  0.24171  Biso   1.000  C
  C212     1.0000 0.01249  0.80244  0.25378  Biso   1.000  C
  C213     1.0000 0.01194  0.84188  0.21492  Biso   1.000  C
  C214     1.0000 0.99703  0.83019  0.16270  Biso   1.000  C
  C215     1.0000 0.98206  0.77808  0.15063  Biso   1.000  C
  C216     1.0000 0.98190  0.73883  0.18967  Biso   1.000  C
  H117     1.0000 0.92348  0.60575  0.32897  Biso   1.000  H
  H118     1.0000 0.07449  0.66123  0.38368  Biso   1.000  H
  H119     1.0000 0.02385  0.88146  0.22572  Biso   1.000  H
  H120     1.0000 0.97019  0.76758  0.11095  Biso   1.000  H
  H121     1.0000 0.07349  0.73082  0.31621  Biso   1.000  H
  H122     1.0000 0.02416  0.81281  0.29355  Biso   1.000  H
  H123     1.0000 0.92252  0.67475  0.26101  Biso   1.000  H
  H124     1.0000 0.97045  0.69910  0.17892  Biso   1.000  H
  C217     1.0000 0.11836  0.94687  0.51289  Biso   1.000  C
  C218     1.0000 0.17297  0.96457  0.51241  Biso   1.000  C
  H125     1.0000 0.20873  0.94127  0.51158  Biso   1.000  H
  C219     1.0000 0.04870  0.88193  0.51589  Biso   1.000  C
  C220     1.0000 0.03302  0.82651  0.52140  Biso   1.000  C
  H126     1.0000 0.05845  0.79239  0.52472  Biso   1.000  H
  C221     1.0000 0.10437  0.89647  0.51354  Biso   1.000  C
  C222     1.0000 0.05042  0.10117  0.50910  Biso   1.000  C
  C223     1.0000 0.03285  0.15564  0.50466  Biso   1.000  C
  H127     1.0000 0.05633  0.19123  0.50222  Biso   1.000  H
  C224     1.0000 0.11543  0.03162  0.51348  Biso   1.000  C
  C225     1.0000 0.17109  0.01585  0.51376  Biso   1.000  C
  H128     1.0000 0.20546  0.04113  0.51454  Biso   1.000  H
  C226     1.0000 0.10075  0.08731  0.51201  Biso   1.000  C
  N13      1.0000 0.08304  0.99126  0.51323  Biso   1.000  N
  C227     1.0000 0.96402  0.87913  0.51807  Biso   1.000  C
  C228     1.0000 0.98172  0.82474  0.52292  Biso   1.000  C
  H129     1.0000 0.95835  0.78929  0.52745  Biso   1.000  H
  C229     1.0000 0.89899  0.94852  0.51176  Biso   1.000  C
  C230     1.0000 0.84334  0.96418  0.50945  Biso   1.000  C
  H130     1.0000 0.80900  0.93884  0.50949  Biso   1.000  H
  C231     1.0000 0.91364  0.89294  0.51574  Biso   1.000  C
  N14      1.0000 0.00837  0.91432  0.51488  Biso   1.000  N
  C232     1.0000 0.89606  0.03316  0.50746  Biso   1.000  C
  C233     1.0000 0.84145  0.01544  0.50753  Biso   1.000  C
  H131     1.0000 0.80568  0.03870  0.50623  Biso   1.000  H
  C234     1.0000 0.96576  0.09817  0.50639  Biso   1.000  C
  C235     1.0000 0.98158  0.15371  0.50288  Biso   1.000  C
  H132     1.0000 0.95631  0.18786  0.49872  Biso   1.000  H
  Ni4      1.0000 0.00721  0.99007  0.51188  Biso   1.000  Ni
  C236     1.0000 0.91004  0.08355  0.50626  Biso   1.000  C
  N15      1.0000 0.93137  0.98885  0.51029  Biso   1.000  N
  N16      1.0000 0.00605  0.06584  0.50910  Biso   1.000  N
  C237     1.0000 0.50187  0.87921  0.05516  Biso   1.000  C
  C238     1.0000 0.49646  0.82488  0.03742  Biso   1.000  C
  H133     1.0000 0.49132  0.78949  0.06075  Biso   1.000  H
  C239     1.0000 0.51032  0.94847  0.12004  Biso   1.000  C
  C240     1.0000 0.51732  0.96395  0.17535  Biso   1.000  C
  H134     1.0000 0.52059  0.93842  0.20939  Biso   1.000  H
  C241     1.0000 0.50497  0.89297  0.10553  Biso   1.000  C
  C242     1.0000 0.50755  0.94698  0.90087  Biso   1.000  C
  C243     1.0000 0.50860  0.96474  0.84629  Biso   1.000  C
  H135     1.0000 0.51063  0.94148  0.81055  Biso   1.000  H
  C244     1.0000 0.50467  0.88198  0.97048  Biso   1.000  C
  C245     1.0000 0.49857  0.82662  0.98614  Biso   1.000  C
  H136     1.0000 0.49508  0.79253  0.96069  Biso   1.000  H
  C246     1.0000 0.50718  0.89656  0.91482  Biso   1.000  C
  N17      1.0000 0.50569  0.91434  0.01081  Biso   1.000  N
  C247     1.0000 0.51474  0.03309  0.12284  Biso   1.000  C
  C248     1.0000 0.52015  0.01521  0.17712  Biso   1.000  C
  H137     1.0000 0.52588  0.03844  0.21249  Biso   1.000  H
  C249     1.0000 0.50849  0.09827  0.05359  Biso   1.000  C
  C250     1.0000 0.50546  0.15392  0.03802  Biso   1.000  C
  H138     1.0000 0.50531  0.18822  0.06341  Biso   1.000  H
  C251     1.0000 0.51272  0.08352  0.10913  Biso   1.000  C
  N18      1.0000 0.50981  0.98886  0.08772  Biso   1.000  N
  C252     1.0000 0.50340  0.10127  0.96898  Biso   1.000  C
  C253     1.0000 0.50282  0.15585  0.98678  Biso   1.000  C
  H139     1.0000 0.50077  0.19161  0.96355  Biso   1.000  H
  C254     1.0000 0.50470  0.03169  0.90383  Biso   1.000  C
  C255     1.0000 0.50590  0.01597  0.84816  Biso   1.000  C
  H140     1.0000 0.50505  0.04126  0.81380  Biso   1.000  H
  Ni5      1.0000 0.50700  0.99013  0.01198  Biso   1.000  Ni
  C256     1.0000 0.50303  0.08738  0.91856  Biso   1.000  C
  N19      1.0000 0.50701  0.06595  0.01322  Biso   1.000  N
  N20      1.0000 0.50548  0.99133  0.93618  Biso   1.000  N
  C257     1.0000 0.05039  0.48689  0.12315  Biso   1.000  C
  C258     1.0000 0.03269  0.48149  0.17749  Biso   1.000  C
  H141     1.0000 0.05609  0.47734  0.21297  Biso   1.000  H
  C259     1.0000 0.11534  0.49312  0.05372  Biso   1.000  C
  C260     1.0000 0.17076  0.49863  0.03801  Biso   1.000  C
  H142     1.0000 0.20480  0.50291  0.06339  Biso   1.000  H
  C261     1.0000 0.10073  0.49019  0.10937  Biso   1.000  C
  C262     1.0000 0.89627  0.49343  0.05521  Biso   1.000  C
  C263     1.0000 0.84194  0.49897  0.03751  Biso   1.000  C
  H143     1.0000 0.80648  0.50325  0.06090  Biso   1.000  H
  C264     1.0000 0.96568  0.48708  0.12016  Biso   1.000  C
  C265     1.0000 0.98137  0.48165  0.17559  Biso   1.000  C
  H144     1.0000 0.95598  0.47752  0.20964  Biso   1.000  H
  C266     1.0000 0.91004  0.49013  0.10554  Biso   1.000  C
  N21      1.0000 0.00605  0.48921  0.08790  Biso   1.000  N
  C267     1.0000 0.11833  0.49312  0.96900  Biso   1.000  C
  C268     1.0000 0.17266  0.49868  0.98669  Biso   1.000  C
  H145     1.0000 0.20813  0.50286  0.96328  Biso   1.000  H
  C269     1.0000 0.04891  0.48652  0.90408  Biso   1.000  C
  C270     1.0000 0.03320  0.48081  0.84868  Biso   1.000  C
  H146     1.0000 0.05859  0.47646  0.81465  Biso   1.000  H
  C271     1.0000 0.10455  0.48963  0.91867  Biso   1.000  C
  N22      1.0000 0.08308  0.49084  0.01335  Biso   1.000  N
  C272     1.0000 0.96419  0.48640  0.90109  Biso   1.000  C
  C273     1.0000 0.98188  0.48069  0.84678  Biso   1.000  C
  H147     1.0000 0.95848  0.47637  0.81132  Biso   1.000  H
  C274     1.0000 0.89925  0.49312  0.97049  Biso   1.000  C
  C275     1.0000 0.84384  0.49876  0.98618  Biso   1.000  C
  H148     1.0000 0.80980  0.50298  0.96079  Biso   1.000  H
  Ni6      1.0000 0.00729  0.48996  0.01211  Biso   1.000  Ni
  C276     1.0000 0.91386  0.48990  0.91485  Biso   1.000  C
  N23      1.0000 0.00854  0.48884  0.93633  Biso   1.000  N
  N24      1.0000 0.93151  0.49096  0.01086  Biso   1.000  N
  O33      1.0000 0.57919  0.35399  0.50940  Biso   1.000  O
  O34      1.0000 0.57902  0.62619  0.51466  Biso   1.000  O
  O35      1.0000 0.64361  0.48914  0.44060  Biso   1.000  O
  O36      1.0000 0.64319  0.49206  0.58416  Biso   1.000  O
  O37      1.0000 0.57879  0.49051  0.64844  Biso   1.000  O
  O38      1.0000 0.57938  0.48824  0.37614  Biso   1.000  O
  O39      1.0000 0.64336  0.56183  0.51374  Biso   1.000  O
  O40      1.0000 0.64351  0.41838  0.51087  Biso   1.000  O
  Zr7      1.0000 0.60042  0.49010  0.51227  Biso   1.000  Zr
  O41      1.0000 0.55507  0.53787  0.56022  Biso   1.000  O
  O42      1.0000 0.55538  0.44215  0.46420  Biso   1.000  O
  C277     1.0000 0.62816  0.36941  0.50926  Biso   1.000  C
  C278     1.0000 0.62801  0.61078  0.51501  Biso   1.000  C
  C279     1.0000 0.62832  0.48810  0.39160  Biso   1.000  C
  C280     1.0000 0.62777  0.49189  0.63313  Biso   1.000  C
  H149     1.0000 0.57743  0.56039  0.44220  Biso   1.000  H
  O43      1.0000 0.55494  0.53775  0.46462  Biso   1.000  O
  H150     1.0000 0.57733  0.41962  0.58218  Biso   1.000  H
  O44      1.0000 0.55487  0.44224  0.55971  Biso   1.000  O
  O45      1.0000 0.43549  0.62619  0.51126  Biso   1.000  O
  O46      1.0000 0.43551  0.35385  0.51287  Biso   1.000  O
  O47      1.0000 0.50618  0.56183  0.37604  Biso   1.000  O
  O48      1.0000 0.50922  0.56154  0.64837  Biso   1.000  O
  O49      1.0000 0.50455  0.41791  0.64803  Biso   1.000  O
  O50      1.0000 0.51006  0.41823  0.37586  Biso   1.000  O
  O51      1.0000 0.37136  0.49201  0.44002  Biso   1.000  O
  O52      1.0000 0.37096  0.48898  0.58361  Biso   1.000  O
  O53      1.0000 0.43582  0.49103  0.37575  Biso   1.000  O
  O54      1.0000 0.43524  0.48787  0.64805  Biso   1.000  O
  O55      1.0000 0.50506  0.62617  0.44042  Biso   1.000  O
  O56      1.0000 0.50879  0.35388  0.44018  Biso   1.000  O
  O57      1.0000 0.50603  0.35364  0.58358  Biso   1.000  O
  O58      1.0000 0.50823  0.62599  0.58409  Biso   1.000  O
  O59      1.0000 0.37113  0.56186  0.50985  Biso   1.000  O
  O60      1.0000 0.37118  0.41826  0.51389  Biso   1.000  O
  Zr8      1.0000 0.50721  0.58316  0.51226  Biso   1.000  Zr
  Zr9      1.0000 0.50732  0.39683  0.51189  Biso   1.000  Zr
  Zr10     1.0000 0.50752  0.49000  0.41893  Biso   1.000  Zr
  Zr11     1.0000 0.50711  0.48976  0.60525  Biso   1.000  Zr
  Zr12     1.0000 0.41413  0.49006  0.51190  Biso   1.000  Zr
  O61      1.0000 0.45928  0.44198  0.55978  Biso   1.000  O
  O62      1.0000 0.45948  0.53796  0.46410  Biso   1.000  O
  C281     1.0000 0.38653  0.61084  0.50995  Biso   1.000  C
  C282     1.0000 0.38655  0.36927  0.51402  Biso   1.000  C
  C283     1.0000 0.50484  0.61080  0.39142  Biso   1.000  C
  C284     1.0000 0.50939  0.61054  0.63303  Biso   1.000  C
  C285     1.0000 0.50441  0.36897  0.63256  Biso   1.000  C
  C286     1.0000 0.51032  0.36924  0.39124  Biso   1.000  C
  C287     1.0000 0.38682  0.49219  0.39106  Biso   1.000  C
  C288     1.0000 0.38627  0.48774  0.63260  Biso   1.000  C
  H151     1.0000 0.43730  0.41990  0.44168  Biso   1.000  H
  O63      1.0000 0.45974  0.44241  0.46428  Biso   1.000  O
  H152     1.0000 0.43703  0.55998  0.58230  Biso   1.000  H
  O64      1.0000 0.45957  0.53752  0.55975  Biso   1.000  O
  C289     1.0000 0.22378  0.77364  0.51151  Biso   1.000  C
  C290     1.0000 0.21839  0.80732  0.55535  Biso   1.000  C
  C291     1.0000 0.17941  0.84660  0.55628  Biso   1.000  C
  C292     1.0000 0.14549  0.85384  0.51300  Biso   1.000  C
  C293     1.0000 0.15065  0.82020  0.46924  Biso   1.000  C
  C294     1.0000 0.18912  0.78034  0.46862  Biso   1.000  C
  C295     1.0000 0.26553  0.73194  0.51052  Biso   1.000  C
  C296     1.0000 0.25412  0.68052  0.49295  Biso   1.000  C
  C297     1.0000 0.29319  0.64124  0.49288  Biso   1.000  C
  C298     1.0000 0.34496  0.65257  0.50956  Biso   1.000  C
  C299     1.0000 0.35647  0.70421  0.52651  Biso   1.000  C
  C300     1.0000 0.31720  0.74321  0.52735  Biso   1.000  C
  H153     1.0000 0.17587  0.87170  0.59068  Biso   1.000  H
  H154     1.0000 0.12489  0.82492  0.43548  Biso   1.000  H
  H155     1.0000 0.28290  0.60202  0.47943  Biso   1.000  H
  H156     1.0000 0.39577  0.71439  0.53983  Biso   1.000  H
  H157     1.0000 0.19240  0.75532  0.43415  Biso   1.000  H
  H158     1.0000 0.21466  0.67043  0.48007  Biso   1.000  H
  H159     1.0000 0.24397  0.80282  0.58926  Biso   1.000  H
  H160     1.0000 0.32744  0.78250  0.54066  Biso   1.000  H
  C301     1.0000 0.22299  0.20729  0.51367  Biso   1.000  C
  C302     1.0000 0.18866  0.20105  0.55689  Biso   1.000  C
  C303     1.0000 0.14945  0.16197  0.55651  Biso   1.000  C
  C304     1.0000 0.14310  0.12869  0.51261  Biso   1.000  C
  C305     1.0000 0.17695  0.13517  0.46918  Biso   1.000  C
  C306     1.0000 0.21672  0.17369  0.46988  Biso   1.000  C
  C307     1.0000 0.26503  0.24870  0.51420  Biso   1.000  C
  C308     1.0000 0.31651  0.23716  0.49693  Biso   1.000  C
  C309     1.0000 0.35599  0.27598  0.49751  Biso   1.000  C
  C310     1.0000 0.34486  0.32766  0.51458  Biso   1.000  C
  C311     1.0000 0.29327  0.33924  0.53162  Biso   1.000  C
  C312     1.0000 0.25402  0.30018  0.53182  Biso   1.000  C
  H161     1.0000 0.12385  0.15771  0.59046  Biso   1.000  H
  H162     1.0000 0.17261  0.11021  0.43478  Biso   1.000  H
  H163     1.0000 0.39516  0.26564  0.48390  Biso   1.000  H
  H164     1.0000 0.28326  0.37851  0.54517  Biso   1.000  H
  H165     1.0000 0.24210  0.17780  0.43576  Biso   1.000  H
  H166     1.0000 0.32642  0.19783  0.48352  Biso   1.000  H
  H167     1.0000 0.19268  0.22596  0.59137  Biso   1.000  H
  H168     1.0000 0.21471  0.31048  0.54499  Biso   1.000  H
  C313     1.0000 0.79056  0.20631  0.50595  Biso   1.000  C
  C314     1.0000 0.82422  0.19939  0.54957  Biso   1.000  C
  C315     1.0000 0.86263  0.15953  0.54967  Biso   1.000  C
  C316     1.0000 0.86887  0.12613  0.50586  Biso   1.000  C
  C317     1.0000 0.83580  0.13341  0.46193  Biso   1.000  C
  C318     1.0000 0.79678  0.17271  0.46216  Biso   1.000  C
  C319     1.0000 0.74905  0.24825  0.50626  Biso   1.000  C
  C320     1.0000 0.69744  0.23732  0.48901  Biso   1.000  C
  C321     1.0000 0.65824  0.27643  0.49021  Biso   1.000  C
  C322     1.0000 0.66983  0.32780  0.50789  Biso   1.000  C
  C323     1.0000 0.72165  0.33887  0.52455  Biso   1.000  C
  C324     1.0000 0.76060  0.29951  0.52416  Biso   1.000  C
  H169     1.0000 0.88760  0.15465  0.58400  Biso   1.000  H
  H170     1.0000 0.84005  0.10837  0.42757  Biso   1.000  H
  H171     1.0000 0.61888  0.26649  0.47690  Biso   1.000  H
  H172     1.0000 0.73202  0.37787  0.53857  Biso   1.000  H
  H173     1.0000 0.77187  0.17732  0.42776  Biso   1.000  H
  H174     1.0000 0.68714  0.19816  0.47537  Biso   1.000  H
  H175     1.0000 0.82020  0.22428  0.58406  Biso   1.000  H
  H176     1.0000 0.80004  0.30935  0.53732  Biso   1.000  H
  C325     1.0000 0.79137  0.77298  0.51671  Biso   1.000  C
  C326     1.0000 0.79723  0.80785  0.55956  Biso   1.000  C
  C327     1.0000 0.83700  0.84642  0.55948  Biso   1.000  C
  C328     1.0000 0.87129  0.85156  0.51620  Biso   1.000  C
  C329     1.0000 0.86518  0.81713  0.47316  Biso   1.000  C
  C330     1.0000 0.82598  0.77808  0.47357  Biso   1.000  C
  C331     1.0000 0.74952  0.73137  0.51693  Biso   1.000  C
  C332     1.0000 0.76095  0.67964  0.50037  Biso   1.000  C
  C333     1.0000 0.72178  0.64056  0.50031  Biso   1.000  C
  C334     1.0000 0.66981  0.65228  0.51607  Biso   1.000  C
  C335     1.0000 0.65833  0.70410  0.53249  Biso   1.000  C
  C336     1.0000 0.69776  0.74300  0.53330  Biso   1.000  C
  H177     1.0000 0.84104  0.87241  0.59315  Biso   1.000  H
  H178     1.0000 0.89098  0.82047  0.43927  Biso   1.000  H
  H179     1.0000 0.73212  0.60121  0.48726  Biso   1.000  H
  H180     1.0000 0.61885  0.71455  0.54507  Biso   1.000  H
  H181     1.0000 0.82223  0.75227  0.43974  Biso   1.000  H
  H182     1.0000 0.80049  0.66923  0.48796  Biso   1.000  H
  H183     1.0000 0.77155  0.80472  0.59356  Biso   1.000  H
  H184     1.0000 0.68754  0.78252  0.54592  Biso   1.000  H
  C337     1.0000 0.50372  0.77330  0.22817  Biso   1.000  C
  C338     1.0000 0.54586  0.77681  0.19215  Biso   1.000  C
  C339     1.0000 0.54640  0.81575  0.15285  Biso   1.000  C
  C340     1.0000 0.50443  0.85168  0.14800  Biso   1.000  C
  C341     1.0000 0.46228  0.84833  0.18386  Biso   1.000  C
  C342     1.0000 0.46207  0.80981  0.22369  Biso   1.000  C
  C343     1.0000 0.50331  0.73163  0.27000  Biso   1.000  C
  C344     1.0000 0.48842  0.74359  0.32214  Biso   1.000  C
  C345     1.0000 0.48905  0.70460  0.36151  Biso   1.000  C
  C346     1.0000 0.50386  0.65238  0.34964  Biso   1.000  C
  C347     1.0000 0.51814  0.64035  0.29731  Biso   1.000  C
  C348     1.0000 0.51819  0.67948  0.25817  Biso   1.000  C
  H185     1.0000 0.57954  0.81780  0.12596  Biso   1.000  H
  H186     1.0000 0.42952  0.87560  0.18095  Biso   1.000  H
  H187     1.0000 0.47765  0.71536  0.40125  Biso   1.000  H
  H188     1.0000 0.52989  0.60069  0.28661  Biso   1.000  H
  H189     1.0000 0.42885  0.80799  0.25049  Biso   1.000  H
  H190     1.0000 0.47713  0.78342  0.33271  Biso   1.000  H
  H191     1.0000 0.57886  0.74981  0.19485  Biso   1.000  H
  H192     1.0000 0.52937  0.66876  0.21835  Biso   1.000  H
  C349     1.0000 0.50887  0.77360  0.79555  Biso   1.000  C
  C350     1.0000 0.55163  0.77992  0.83045  Biso   1.000  C
  C351     1.0000 0.55119  0.81986  0.86884  Biso   1.000  C
  C352     1.0000 0.50774  0.85396  0.87367  Biso   1.000  C
  C353     1.0000 0.46460  0.84709  0.83949  Biso   1.000  C
  C354     1.0000 0.46536  0.80774  0.80060  Biso   1.000  C
  C355     1.0000 0.50962  0.73181  0.75388  Biso   1.000  C
  C356     1.0000 0.49313  0.74318  0.70212  Biso   1.000  C
  C357     1.0000 0.49366  0.70410  0.66294  Biso   1.000  C
  C358     1.0000 0.50995  0.65228  0.67460  Biso   1.000  C
  C359     1.0000 0.52629  0.64085  0.72645  Biso   1.000  C
  C360     1.0000 0.52653  0.68021  0.76546  Biso   1.000  C
  H193     1.0000 0.58482  0.82426  0.89483  Biso   1.000  H
  H194     1.0000 0.43042  0.87251  0.84280  Biso   1.000  H
  H195     1.0000 0.48063  0.71438  0.62357  Biso   1.000  H
  H196     1.0000 0.53925  0.60148  0.73686  Biso   1.000  H
  H197     1.0000 0.43154  0.80353  0.77484  Biso   1.000  H
  H198     1.0000 0.48033  0.78260  0.69175  Biso   1.000  H
  H199     1.0000 0.58585  0.75452  0.82742  Biso   1.000  H
  H200     1.0000 0.53912  0.67004  0.80499  Biso   1.000  H
  C361     1.0000 0.50198  0.20703  0.79601  Biso   1.000  C
  C362     1.0000 0.54664  0.17509  0.80427  Biso   1.000  C
  C363     1.0000 0.54702  0.13671  0.84416  Biso   1.000  C
  C364     1.0000 0.50244  0.12868  0.87612  Biso   1.000  C
  C365     1.0000 0.45758  0.16019  0.86767  Biso   1.000  C
  C366     1.0000 0.45752  0.19924  0.82838  Biso   1.000  C
  C367     1.0000 0.50192  0.24836  0.75393  Biso   1.000  C
  C368     1.0000 0.48308  0.29952  0.76435  Biso   1.000  C
  C369     1.0000 0.48409  0.33863  0.72515  Biso   1.000  C
  C370     1.0000 0.50308  0.32734  0.67418  Biso   1.000  C
  C371     1.0000 0.52122  0.27593  0.66358  Biso   1.000  C
  C372     1.0000 0.52109  0.23710  0.70307  Biso   1.000  C
  H201     1.0000 0.58213  0.11309  0.85008  Biso   1.000  H
  H202     1.0000 0.42271  0.15465  0.89173  Biso   1.000  H
  H203     1.0000 0.46961  0.37768  0.73468  Biso   1.000  H
  H204     1.0000 0.53628  0.26583  0.62489  Biso   1.000  H
  H205     1.0000 0.42239  0.22289  0.82277  Biso   1.000  H
  H206     1.0000 0.46839  0.30956  0.80320  Biso   1.000  H
  H207     1.0000 0.58166  0.18042  0.78038  Biso   1.000  H
  H208     1.0000 0.53550  0.19800  0.69367  Biso   1.000  H
  C373     1.0000 0.51337  0.20578  0.22913  Biso   1.000  C
  C374     1.0000 0.55607  0.20034  0.19400  Biso   1.000  C
  C375     1.0000 0.55616  0.16052  0.15544  Biso   1.000  C
  C376     1.0000 0.51322  0.12579  0.15061  Biso   1.000  C
  C377     1.0000 0.47034  0.13148  0.18532  Biso   1.000  C
  C378     1.0000 0.47057  0.17071  0.22432  Biso   1.000  C
  C379     1.0000 0.51332  0.24767  0.27072  Biso   1.000  C
  C380     1.0000 0.49687  0.23614  0.32246  Biso   1.000  C
  C381     1.0000 0.49642  0.27535  0.36150  Biso   1.000  C
  C382     1.0000 0.51170  0.32745  0.34974  Biso   1.000  C
  C383     1.0000 0.52805  0.33903  0.29792  Biso   1.000  C
  C384     1.0000 0.52923  0.29957  0.25904  Biso   1.000  C
  H209     1.0000 0.58968  0.15686  0.12921  Biso   1.000  H
  H210     1.0000 0.43667  0.10536  0.18219  Biso   1.000  H
  H211     1.0000 0.48347  0.26491  0.40086  Biso   1.000  H
  H212     1.0000 0.54029  0.37861  0.28744  Biso   1.000  H
  H213     1.0000 0.43684  0.17414  0.25030  Biso   1.000  H
  H214     1.0000 0.48484  0.19650  0.33292  Biso   1.000  H
  H215     1.0000 0.58980  0.22638  0.19690  Biso   1.000  H
  H216     1.0000 0.54175  0.30988  0.21952  Biso   1.000  H
  C385     1.0000 0.22330  0.49181  0.22900  Biso   1.000  C
  C386     1.0000 0.18724  0.53383  0.22462  Biso   1.000  C
  C387     1.0000 0.14789  0.53342  0.18570  Biso   1.000  C
  C388     1.0000 0.14312  0.49067  0.15070  Biso   1.000  C
  C389     1.0000 0.17888  0.44854  0.15512  Biso   1.000  C
  C390     1.0000 0.21872  0.44925  0.19358  Biso   1.000  C
  C391     1.0000 0.26535  0.49234  0.27042  Biso   1.000  C
  C392     1.0000 0.31732  0.47699  0.25841  Biso   1.000  C
  C393     1.0000 0.35677  0.47757  0.29726  Biso   1.000  C
  C394     1.0000 0.34517  0.49281  0.34940  Biso   1.000  C
  C395     1.0000 0.29311  0.50803  0.36142  Biso   1.000  C
  C396     1.0000 0.25385  0.50814  0.32238  Biso   1.000  C
  H217     1.0000 0.12097  0.56648  0.18289  Biso   1.000  H
  H218     1.0000 0.17592  0.41510  0.12869  Biso   1.000  H
  H219     1.0000 0.39631  0.46544  0.28652  Biso   1.000  H
  H220     1.0000 0.28268  0.52016  0.40104  Biso   1.000  H
  H221     1.0000 0.24549  0.41606  0.19618  Biso   1.000  H
  H222     1.0000 0.32764  0.46507  0.21870  Biso   1.000  H
  H223     1.0000 0.18997  0.56743  0.25085  Biso   1.000  H
  H224     1.0000 0.21417  0.51980  0.33309  Biso   1.000  H
  C397     1.0000 0.79039  0.48870  0.22810  Biso   1.000  C
  C398     1.0000 0.82582  0.53125  0.22347  Biso   1.000  C
  C399     1.0000 0.86428  0.53190  0.18363  Biso   1.000  C
  C400     1.0000 0.86870  0.48973  0.14793  Biso   1.000  C
  C401     1.0000 0.83370  0.44698  0.15276  Biso   1.000  C
  C402     1.0000 0.79479  0.44663  0.19211  Biso   1.000  C
  C403     1.0000 0.74896  0.48821  0.27014  Biso   1.000  C
  C404     1.0000 0.69704  0.47227  0.25866  Biso   1.000  C
  C405     1.0000 0.65801  0.47232  0.29791  Biso   1.000  C
  C406     1.0000 0.66998  0.48762  0.34995  Biso   1.000  C
  C407     1.0000 0.72206  0.50308  0.36154  Biso   1.000  C
  C408     1.0000 0.76091  0.50372  0.32209  Biso   1.000  C
  H225     1.0000 0.89072  0.56533  0.18063  Biso   1.000  H
  H226     1.0000 0.83651  0.41389  0.12587  Biso   1.000  H
  H227     1.0000 0.61842  0.46005  0.28750  Biso   1.000  H
  H228     1.0000 0.73274  0.51533  0.40106  Biso   1.000  H
  H229     1.0000 0.76856  0.41303  0.19488  Biso   1.000  H
  H230     1.0000 0.68637  0.46050  0.21900  Biso   1.000  H
  H231     1.0000 0.82322  0.56448  0.25019  Biso   1.000  H
  H232     1.0000 0.80058  0.51577  0.33240  Biso   1.000  H
  C409     1.0000 0.79130  0.49138  0.79520  Biso   1.000  C
  C410     1.0000 0.79566  0.44902  0.83087  Biso   1.000  C
  C411     1.0000 0.83551  0.44834  0.86932  Biso   1.000  C
  C412     1.0000 0.87147  0.49031  0.87351  Biso   1.000  C
  C413     1.0000 0.86689  0.53290  0.83826  Biso   1.000  C
  C414     1.0000 0.82755  0.53325  0.79934  Biso   1.000  C
  C415     1.0000 0.74926  0.49188  0.75378  Biso   1.000  C
  C416     1.0000 0.76090  0.50715  0.70169  Biso   1.000  C
  C417     1.0000 0.72164  0.50707  0.66266  Biso   1.000  C
  C418     1.0000 0.66945  0.49242  0.67478  Biso   1.000  C
  C419     1.0000 0.65771  0.47768  0.72705  Biso   1.000  C
  C420     1.0000 0.69716  0.47706  0.76590  Biso   1.000  C
  H233     1.0000 0.83832  0.41504  0.89595  Biso   1.000  H
  H234     1.0000 0.89397  0.56585  0.84088  Biso   1.000  H
  H235     1.0000 0.73220  0.51878  0.62294  Biso   1.000  H
  H236     1.0000 0.61807  0.46601  0.73789  Biso   1.000  H
  H237     1.0000 0.82499  0.56671  0.77290  Biso   1.000  H
  H238     1.0000 0.80068  0.51839  0.69090  Biso   1.000  H
  H239     1.0000 0.76873  0.41595  0.82847  Biso   1.000  H
  H240     1.0000 0.68675  0.46555  0.80571  Biso   1.000  H
  C421     1.0000 0.22418  0.48796  0.79609  Biso   1.000  C
  C422     1.0000 0.21994  0.44606  0.83230  Biso   1.000  C
  C423     1.0000 0.18102  0.44647  0.87165  Biso   1.000  C
  C424     1.0000 0.14588  0.48913  0.87628  Biso   1.000  C
  C425     1.0000 0.15016  0.53115  0.84036  Biso   1.000  C
  C426     1.0000 0.18861  0.53041  0.80051  Biso   1.000  C
  C427     1.0000 0.26559  0.48742  0.75404  Biso   1.000  C
  C428     1.0000 0.25352  0.50251  0.70200  Biso   1.000  C
  C429     1.0000 0.29238  0.50196  0.66256  Biso   1.000  C
  C430     1.0000 0.34460  0.48705  0.67425  Biso   1.000  C
  C431     1.0000 0.35667  0.47208  0.72636  Biso   1.000  C
  C432     1.0000 0.31763  0.47192  0.76561  Biso   1.000  C
  H241     1.0000 0.17833  0.41350  0.89869  Biso   1.000  H
  H242     1.0000 0.12362  0.56451  0.84321  Biso   1.000  H
  H243     1.0000 0.28158  0.51387  0.62298  Biso   1.000  H
  H244     1.0000 0.39635  0.46021  0.73686  Biso   1.000  H
  H245     1.0000 0.19109  0.56351  0.77362  Biso   1.000  H
  H246     1.0000 0.21375  0.51418  0.69163  Biso   1.000  H
  H247     1.0000 0.24629  0.41254  0.82969  Biso   1.000  H
