data_image0
_cell_length_a       29.184
_cell_length_b       29.184
_cell_length_c       29.184
_cell_angle_alpha    90
_cell_angle_beta     90
_cell_angle_gamma    90

_symmetry_space_group_name_H-M    "P 1"
_symmetry_int_tables_number       1

loop_
  _symmetry_equiv_pos_as_xyz
  'x, y, z'

loop_
  _atom_site_label
  _atom_site_occupancy
  _atom_site_fract_x
  _atom_site_fract_y
  _atom_site_fract_z
  _atom_site_thermal_displace_type
  _atom_site_B_iso_or_equiv
  _atom_site_type_symbol
  Zn1      1.0000 0.28838  0.28838  0.21162  Biso   1.000  Zn
  O1       1.0000 0.25000  0.25000  0.25000  Biso   1.000  O
  O2       1.0000 0.27799  0.35317  0.22200  Biso   1.000  O
  C1       1.0000 0.25000  0.37174  0.25000  Biso   1.000  C
  C2       1.0000 0.25000  0.42290  0.25000  Biso   1.000  C
  S1       1.0000 0.22430  0.45261  0.27570  Biso   1.000  S
  C3       1.0000 0.23345  0.50000  0.26655  Biso   1.000  C
  O3       1.0000 0.22200  0.64683  0.27799  Biso   1.000  O
  C4       1.0000 0.25000  0.62826  0.25000  Biso   1.000  C
  C5       1.0000 0.25000  0.57710  0.25000  Biso   1.000  C
  S2       1.0000 0.27570  0.54739  0.22430  Biso   1.000  S
  C6       1.0000 0.26655  0.50000  0.23345  Biso   1.000  C
  O4       1.0000 0.22200  0.35317  0.27799  Biso   1.000  O
  C7       1.0000 0.27570  0.45261  0.22430  Biso   1.000  C
  H1       1.0000 0.29718  0.44302  0.20282  Biso   1.000  H
  O5       1.0000 0.27799  0.64683  0.22200  Biso   1.000  O
  C8       1.0000 0.22430  0.54739  0.27570  Biso   1.000  C
  H2       1.0000 0.20282  0.55698  0.29718  Biso   1.000  H
  Zn2      1.0000 0.21162  0.28838  0.28838  Biso   1.000  Zn
  O6       1.0000 0.22200  0.27799  0.35317  Biso   1.000  O
  C9       1.0000 0.25000  0.25000  0.37174  Biso   1.000  C
  C10      1.0000 0.25000  0.25000  0.42290  Biso   1.000  C
  S3       1.0000 0.27570  0.22430  0.45261  Biso   1.000  S
  C11      1.0000 0.26655  0.23345  0.50000  Biso   1.000  C
  O7       1.0000 0.27799  0.22200  0.64683  Biso   1.000  O
  C12      1.0000 0.25000  0.25000  0.62826  Biso   1.000  C
  C13      1.0000 0.25000  0.25000  0.57710  Biso   1.000  C
  S4       1.0000 0.22430  0.27570  0.54739  Biso   1.000  S
  C14      1.0000 0.23345  0.26655  0.50000  Biso   1.000  C
  O8       1.0000 0.27799  0.22200  0.35317  Biso   1.000  O
  C15      1.0000 0.22430  0.27570  0.45261  Biso   1.000  C
  H3       1.0000 0.20282  0.29718  0.44302  Biso   1.000  H
  O9       1.0000 0.22200  0.27799  0.64683  Biso   1.000  O
  C16      1.0000 0.27570  0.22430  0.54739  Biso   1.000  C
  H4       1.0000 0.29718  0.20282  0.55698  Biso   1.000  H
  Zn3      1.0000 0.28838  0.21162  0.28838  Biso   1.000  Zn
  O10      1.0000 0.35317  0.22200  0.27799  Biso   1.000  O
  C17      1.0000 0.37174  0.25000  0.25000  Biso   1.000  C
  C18      1.0000 0.42290  0.25000  0.25000  Biso   1.000  C
  S5       1.0000 0.45261  0.27570  0.22430  Biso   1.000  S
  C19      1.0000 0.50000  0.26655  0.23345  Biso   1.000  C
  O11      1.0000 0.64683  0.27799  0.22200  Biso   1.000  O
  C20      1.0000 0.62826  0.25000  0.25000  Biso   1.000  C
  C21      1.0000 0.57710  0.25000  0.25000  Biso   1.000  C
  S6       1.0000 0.54739  0.22430  0.27570  Biso   1.000  S
  C22      1.0000 0.50000  0.23345  0.26655  Biso   1.000  C
  O12      1.0000 0.35317  0.27799  0.22200  Biso   1.000  O
  C23      1.0000 0.45261  0.22430  0.27570  Biso   1.000  C
  H5       1.0000 0.44302  0.20282  0.29718  Biso   1.000  H
  O13      1.0000 0.64683  0.22200  0.27799  Biso   1.000  O
  C24      1.0000 0.54739  0.27570  0.22430  Biso   1.000  C
  H6       1.0000 0.55698  0.29718  0.20282  Biso   1.000  H
  Zn4      1.0000 0.28838  0.71162  0.21162  Biso   1.000  Zn
  Zn5      1.0000 0.71162  0.28838  0.21162  Biso   1.000  Zn
  Zn6      1.0000 0.28838  0.21162  0.71162  Biso   1.000  Zn
  Zn7      1.0000 0.71162  0.21162  0.28838  Biso   1.000  Zn
  Zn8      1.0000 0.21162  0.28838  0.71162  Biso   1.000  Zn
  Zn9      1.0000 0.21162  0.71162  0.28838  Biso   1.000  Zn
  Zn10     1.0000 0.21162  0.21162  0.21162  Biso   1.000  Zn
  O14      1.0000 0.25000  0.75000  0.25000  Biso   1.000  O
  O15      1.0000 0.35317  0.72200  0.22200  Biso   1.000  O
  O16      1.0000 0.27799  0.14683  0.27799  Biso   1.000  O
  O17      1.0000 0.27799  0.72200  0.14683  Biso   1.000  O
  O18      1.0000 0.27799  0.27799  0.14683  Biso   1.000  O
  O19      1.0000 0.14683  0.27799  0.27799  Biso   1.000  O
  C25      1.0000 0.23345  1.00000  0.76655  Biso   1.000  C
  O20      1.0000 0.22200  0.14683  0.77799  Biso   1.000  O
  C26      1.0000 0.25000  0.12826  0.75000  Biso   1.000  C
  C27      1.0000 0.25000  0.07710  0.75000  Biso   1.000  C
  S7       1.0000 0.27570  0.04739  0.72430  Biso   1.000  S
  C28      1.0000 0.26655  1.00000  0.73345  Biso   1.000  C
  O21      1.0000 0.27799  0.14683  0.72200  Biso   1.000  O
  C29      1.0000 0.22430  0.04739  0.77570  Biso   1.000  C
  H7       1.0000 0.20282  0.05698  0.79718  Biso   1.000  H
  Zn11     1.0000 0.21162  0.21162  0.78838  Biso   1.000  Zn
  O22      1.0000 0.25000  0.25000  0.75000  Biso   1.000  O
  O23      1.0000 0.35317  0.22200  0.72200  Biso   1.000  O
  C30      1.0000 0.26655  0.73345  0.00000  Biso   1.000  C
  C31      1.0000 0.25000  0.75000  0.12826  Biso   1.000  C
  C32      1.0000 0.25000  0.75000  0.07710  Biso   1.000  C
  S8       1.0000 0.22430  0.77570  0.04739  Biso   1.000  S
  C33      1.0000 0.23345  0.76655  0.00000  Biso   1.000  C
  O24      1.0000 0.22200  0.77799  0.14683  Biso   1.000  O
  C34      1.0000 0.27570  0.72430  0.04739  Biso   1.000  C
  H8       1.0000 0.29718  0.70282  0.05698  Biso   1.000  H
  Zn12     1.0000 0.21162  0.78838  0.21162  Biso   1.000  Zn
  Zn13     1.0000 0.28838  0.78838  0.71162  Biso   1.000  Zn
  O25      1.0000 0.25000  0.75000  0.75000  Biso   1.000  O
  O26      1.0000 0.27799  0.85317  0.72200  Biso   1.000  O
  C35      1.0000 0.25000  0.87174  0.75000  Biso   1.000  C
  C36      1.0000 0.25000  0.92290  0.75000  Biso   1.000  C
  S9       1.0000 0.22430  0.95261  0.77570  Biso   1.000  S
  O27      1.0000 0.22200  0.85317  0.77799  Biso   1.000  O
  C37      1.0000 0.27570  0.95261  0.72430  Biso   1.000  C
  H9       1.0000 0.29718  0.94302  0.70282  Biso   1.000  H
  Zn14     1.0000 0.21162  0.78838  0.78838  Biso   1.000  Zn
  O28      1.0000 0.22200  0.77799  0.85317  Biso   1.000  O
  C38      1.0000 0.25000  0.75000  0.87174  Biso   1.000  C
  C39      1.0000 0.25000  0.75000  0.92290  Biso   1.000  C
  S10      1.0000 0.27570  0.72430  0.95261  Biso   1.000  S
  O29      1.0000 0.27799  0.72200  0.85317  Biso   1.000  O
  C40      1.0000 0.22430  0.77570  0.95261  Biso   1.000  C
  H10      1.0000 0.20282  0.79718  0.94302  Biso   1.000  H
  Zn15     1.0000 0.28838  0.71162  0.78838  Biso   1.000  Zn
  O30      1.0000 0.35317  0.72200  0.77799  Biso   1.000  O
  C41      1.0000 0.37174  0.75000  0.75000  Biso   1.000  C
  C42      1.0000 0.42290  0.75000  0.75000  Biso   1.000  C
  S11      1.0000 0.45261  0.77570  0.72430  Biso   1.000  S
  C43      1.0000 0.50000  0.76655  0.73345  Biso   1.000  C
  O31      1.0000 0.64683  0.77799  0.72200  Biso   1.000  O
  C44      1.0000 0.62826  0.75000  0.75000  Biso   1.000  C
  C45      1.0000 0.57710  0.75000  0.75000  Biso   1.000  C
  S12      1.0000 0.54739  0.72430  0.77570  Biso   1.000  S
  C46      1.0000 0.50000  0.73345  0.76655  Biso   1.000  C
  O32      1.0000 0.35317  0.77799  0.72200  Biso   1.000  O
  C47      1.0000 0.45261  0.72430  0.77570  Biso   1.000  C
  H11      1.0000 0.44302  0.70282  0.79718  Biso   1.000  H
  O33      1.0000 0.64683  0.72200  0.77799  Biso   1.000  O
  C48      1.0000 0.54739  0.77570  0.72430  Biso   1.000  C
  H12      1.0000 0.55698  0.79718  0.70282  Biso   1.000  H
  Zn16     1.0000 0.71162  0.78838  0.71162  Biso   1.000  Zn
  Zn17     1.0000 0.71162  0.71162  0.78838  Biso   1.000  Zn
  Zn18     1.0000 0.21162  0.71162  0.71162  Biso   1.000  Zn
  O34      1.0000 0.27799  0.64683  0.77799  Biso   1.000  O
  O35      1.0000 0.27799  0.77799  0.64683  Biso   1.000  O
  O36      1.0000 0.14683  0.77799  0.77799  Biso   1.000  O
  C49      1.0000 1.00000  0.26655  0.73345  Biso   1.000  C
  O37      1.0000 0.14683  0.27799  0.72200  Biso   1.000  O
  C50      1.0000 0.12826  0.25000  0.75000  Biso   1.000  C
  C51      1.0000 0.07710  0.25000  0.75000  Biso   1.000  C
  S13      1.0000 0.04739  0.22430  0.77570  Biso   1.000  S
  C52      1.0000 1.00000  0.23345  0.76655  Biso   1.000  C
  O38      1.0000 0.14683  0.22200  0.77799  Biso   1.000  O
  C53      1.0000 0.04739  0.27570  0.72430  Biso   1.000  C
  H13      1.0000 0.05698  0.29718  0.70282  Biso   1.000  H
  C54      1.0000 0.76655  0.23345  0.00000  Biso   1.000  C
  O39      1.0000 0.77799  0.22200  0.14683  Biso   1.000  O
  C55      1.0000 0.75000  0.25000  0.12826  Biso   1.000  C
  C56      1.0000 0.75000  0.25000  0.07710  Biso   1.000  C
  S14      1.0000 0.72430  0.27570  0.04739  Biso   1.000  S
  C57      1.0000 0.73345  0.26655  0.00000  Biso   1.000  C
  O40      1.0000 0.72200  0.27799  0.14683  Biso   1.000  O
  C58      1.0000 0.77570  0.22430  0.04739  Biso   1.000  C
  H14      1.0000 0.79718  0.20282  0.05698  Biso   1.000  H
  Zn19     1.0000 0.78838  0.21162  0.21162  Biso   1.000  Zn
  Zn20     1.0000 0.78838  0.28838  0.71162  Biso   1.000  Zn
  O41      1.0000 0.75000  0.25000  0.75000  Biso   1.000  O
  O42      1.0000 0.77799  0.35317  0.72200  Biso   1.000  O
  C59      1.0000 0.75000  0.37174  0.75000  Biso   1.000  C
  C60      1.0000 0.75000  0.42290  0.75000  Biso   1.000  C
  S15      1.0000 0.72430  0.45261  0.77570  Biso   1.000  S
  C61      1.0000 0.73345  0.50000  0.76655  Biso   1.000  C
  O43      1.0000 0.72200  0.64683  0.77799  Biso   1.000  O
  C62      1.0000 0.75000  0.62826  0.75000  Biso   1.000  C
  C63      1.0000 0.75000  0.57710  0.75000  Biso   1.000  C
  S16      1.0000 0.77570  0.54739  0.72430  Biso   1.000  S
  C64      1.0000 0.76655  0.50000  0.73345  Biso   1.000  C
  O44      1.0000 0.72200  0.35317  0.77799  Biso   1.000  O
  C65      1.0000 0.77570  0.45261  0.72430  Biso   1.000  C
  H15      1.0000 0.79718  0.44302  0.70282  Biso   1.000  H
  O45      1.0000 0.77799  0.64683  0.72200  Biso   1.000  O
  C66      1.0000 0.72430  0.54739  0.77570  Biso   1.000  C
  H16      1.0000 0.70282  0.55698  0.79718  Biso   1.000  H
  Zn21     1.0000 0.71162  0.28838  0.78838  Biso   1.000  Zn
  O46      1.0000 0.72200  0.27799  0.85317  Biso   1.000  O
  C67      1.0000 0.75000  0.25000  0.87174  Biso   1.000  C
  C68      1.0000 0.75000  0.25000  0.92290  Biso   1.000  C
  S17      1.0000 0.77570  0.22430  0.95261  Biso   1.000  S
  O47      1.0000 0.77799  0.22200  0.85317  Biso   1.000  O
  C69      1.0000 0.72430  0.27570  0.95261  Biso   1.000  C
  H17      1.0000 0.70282  0.29718  0.94302  Biso   1.000  H
  Zn22     1.0000 0.78838  0.21162  0.78838  Biso   1.000  Zn
  O48      1.0000 0.85317  0.22200  0.77799  Biso   1.000  O
  C70      1.0000 0.87174  0.25000  0.75000  Biso   1.000  C
  C71      1.0000 0.92290  0.25000  0.75000  Biso   1.000  C
  S18      1.0000 0.95261  0.27570  0.72430  Biso   1.000  S
  O49      1.0000 0.85317  0.27799  0.72200  Biso   1.000  O
  C72      1.0000 0.95261  0.22430  0.77570  Biso   1.000  C
  H18      1.0000 0.94302  0.20282  0.79718  Biso   1.000  H
  Zn23     1.0000 0.78838  0.71162  0.71162  Biso   1.000  Zn
  Zn24     1.0000 0.71162  0.21162  0.71162  Biso   1.000  Zn
  O50      1.0000 0.75000  0.75000  0.75000  Biso   1.000  O
  O51      1.0000 0.85317  0.72200  0.72200  Biso   1.000  O
  O52      1.0000 0.77799  0.14683  0.77799  Biso   1.000  O
  O53      1.0000 0.77799  0.72200  0.64683  Biso   1.000  O
  O54      1.0000 0.77799  0.27799  0.64683  Biso   1.000  O
  O55      1.0000 0.64683  0.27799  0.77799  Biso   1.000  O
  C73      1.0000 1.00000  0.76655  0.23345  Biso   1.000  C
  O56      1.0000 0.14683  0.77799  0.22200  Biso   1.000  O
  C74      1.0000 0.12826  0.75000  0.25000  Biso   1.000  C
  C75      1.0000 0.07710  0.75000  0.25000  Biso   1.000  C
  S19      1.0000 0.04739  0.72430  0.27570  Biso   1.000  S
  C76      1.0000 1.00000  0.73345  0.26655  Biso   1.000  C
  O57      1.0000 0.14683  0.72200  0.27799  Biso   1.000  O
  C77      1.0000 0.04739  0.77570  0.22430  Biso   1.000  C
  H19      1.0000 0.05698  0.79718  0.20282  Biso   1.000  H
  C78      1.0000 0.73345  1.00000  0.26655  Biso   1.000  C
  O58      1.0000 0.72200  0.14683  0.27799  Biso   1.000  O
  C79      1.0000 0.75000  0.12826  0.25000  Biso   1.000  C
  C80      1.0000 0.75000  0.07710  0.25000  Biso   1.000  C
  S20      1.0000 0.77570  0.04739  0.22430  Biso   1.000  S
  C81      1.0000 0.76655  1.00000  0.23345  Biso   1.000  C
  O59      1.0000 0.77799  0.14683  0.22200  Biso   1.000  O
  C82      1.0000 0.72430  0.04739  0.27570  Biso   1.000  C
  H20      1.0000 0.70282  0.05698  0.29718  Biso   1.000  H
  O60      1.0000 0.75000  0.25000  0.25000  Biso   1.000  O
  O61      1.0000 0.85317  0.22200  0.22200  Biso   1.000  O
  Zn25     1.0000 0.78838  0.78838  0.21162  Biso   1.000  Zn
  O62      1.0000 0.75000  0.75000  0.25000  Biso   1.000  O
  O63      1.0000 0.77799  0.85317  0.22200  Biso   1.000  O
  C83      1.0000 0.75000  0.87174  0.25000  Biso   1.000  C
  C84      1.0000 0.75000  0.92290  0.25000  Biso   1.000  C
  S21      1.0000 0.72430  0.95261  0.27570  Biso   1.000  S
  O64      1.0000 0.72200  0.85317  0.27799  Biso   1.000  O
  C85      1.0000 0.77570  0.95261  0.22430  Biso   1.000  C
  H21      1.0000 0.79718  0.94302  0.20282  Biso   1.000  H
  Zn26     1.0000 0.71162  0.78838  0.28838  Biso   1.000  Zn
  O65      1.0000 0.72200  0.77799  0.35317  Biso   1.000  O
  C86      1.0000 0.75000  0.75000  0.37174  Biso   1.000  C
  C87      1.0000 0.75000  0.75000  0.42290  Biso   1.000  C
  S22      1.0000 0.77570  0.72430  0.45261  Biso   1.000  S
  C88      1.0000 0.76655  0.73345  0.50000  Biso   1.000  C
  C89      1.0000 0.75000  0.75000  0.62826  Biso   1.000  C
  C90      1.0000 0.75000  0.75000  0.57710  Biso   1.000  C
  S23      1.0000 0.72430  0.77570  0.54739  Biso   1.000  S
  C91      1.0000 0.73345  0.76655  0.50000  Biso   1.000  C
  O66      1.0000 0.77799  0.72200  0.35317  Biso   1.000  O
  C92      1.0000 0.72430  0.77570  0.45261  Biso   1.000  C
  H22      1.0000 0.70282  0.79718  0.44302  Biso   1.000  H
  O67      1.0000 0.72200  0.77799  0.64683  Biso   1.000  O
  C93      1.0000 0.77570  0.72430  0.54739  Biso   1.000  C
  H23      1.0000 0.79718  0.70282  0.55698  Biso   1.000  H
  Zn27     1.0000 0.78838  0.71162  0.28838  Biso   1.000  Zn
  O68      1.0000 0.85317  0.72200  0.27799  Biso   1.000  O
  C94      1.0000 0.87174  0.75000  0.25000  Biso   1.000  C
  C95      1.0000 0.92290  0.75000  0.25000  Biso   1.000  C
  S24      1.0000 0.95261  0.77570  0.22430  Biso   1.000  S
  O69      1.0000 0.85317  0.77799  0.22200  Biso   1.000  O
  C96      1.0000 0.95261  0.72430  0.27570  Biso   1.000  C
  H24      1.0000 0.94302  0.70282  0.29718  Biso   1.000  H
  Zn28     1.0000 0.71162  0.71162  0.21162  Biso   1.000  Zn
  O70      1.0000 0.77799  0.64683  0.27799  Biso   1.000  O
  O71      1.0000 0.77799  0.77799  0.14683  Biso   1.000  O
  O72      1.0000 0.64683  0.77799  0.27799  Biso   1.000  O
  H25      1.0000 0.70282  0.44302  0.79718  Biso   1.000  H
  H26      1.0000 0.79718  0.55698  0.70282  Biso   1.000  H
  C97      1.0000 0.75000  0.25000  0.62826  Biso   1.000  C
  C98      1.0000 0.75000  0.25000  0.57710  Biso   1.000  C
  S25      1.0000 0.72430  0.22430  0.54739  Biso   1.000  S
  C99      1.0000 0.73345  0.23345  0.50000  Biso   1.000  C
  O73      1.0000 0.72200  0.22200  0.35317  Biso   1.000  O
  C100     1.0000 0.75000  0.25000  0.37174  Biso   1.000  C
  C101     1.0000 0.75000  0.25000  0.42290  Biso   1.000  C
  S26      1.0000 0.77570  0.27570  0.45261  Biso   1.000  S
  C102     1.0000 0.76655  0.26655  0.50000  Biso   1.000  C
  O74      1.0000 0.72200  0.22200  0.64683  Biso   1.000  O
  C103     1.0000 0.77570  0.27570  0.54739  Biso   1.000  C
  H27      1.0000 0.79718  0.29718  0.55698  Biso   1.000  H
  O75      1.0000 0.77799  0.27799  0.35317  Biso   1.000  O
  C104     1.0000 0.72430  0.22430  0.45261  Biso   1.000  C
  H28      1.0000 0.70282  0.20282  0.44302  Biso   1.000  H
  O76      1.0000 0.64683  0.22200  0.72200  Biso   1.000  O
  C105     1.0000 0.62826  0.25000  0.75000  Biso   1.000  C
  C106     1.0000 0.57710  0.25000  0.75000  Biso   1.000  C
  S27      1.0000 0.54739  0.27570  0.77570  Biso   1.000  S
  C107     1.0000 0.50000  0.26655  0.76655  Biso   1.000  C
  O77      1.0000 0.35317  0.27799  0.77799  Biso   1.000  O
  C108     1.0000 0.37174  0.25000  0.75000  Biso   1.000  C
  C109     1.0000 0.42290  0.25000  0.75000  Biso   1.000  C
  S28      1.0000 0.45261  0.22430  0.72430  Biso   1.000  S
  C110     1.0000 0.50000  0.23345  0.73345  Biso   1.000  C
  C111     1.0000 0.54739  0.22430  0.72430  Biso   1.000  C
  H29      1.0000 0.55698  0.20282  0.70282  Biso   1.000  H
  C112     1.0000 0.45261  0.27570  0.77570  Biso   1.000  C
  H30      1.0000 0.44302  0.29718  0.79718  Biso   1.000  H
  Zn29     1.0000 0.28838  0.28838  0.78838  Biso   1.000  Zn
  Zn30     1.0000 0.78838  0.28838  0.28838  Biso   1.000  Zn
  O78      1.0000 0.72200  0.14683  0.72200  Biso   1.000  O
  O79      1.0000 0.72200  0.72200  0.85317  Biso   1.000  O
  O80      1.0000 0.72200  0.64683  0.22200  Biso   1.000  O
  C113     1.0000 0.75000  0.62826  0.25000  Biso   1.000  C
  C114     1.0000 0.75000  0.57710  0.25000  Biso   1.000  C
  S29      1.0000 0.77570  0.54739  0.27570  Biso   1.000  S
  C115     1.0000 0.76655  0.50000  0.26655  Biso   1.000  C
  O81      1.0000 0.77799  0.35317  0.27799  Biso   1.000  O
  C116     1.0000 0.75000  0.37174  0.25000  Biso   1.000  C
  C117     1.0000 0.75000  0.42290  0.25000  Biso   1.000  C
  S30      1.0000 0.72430  0.45261  0.22430  Biso   1.000  S
  C118     1.0000 0.73345  0.50000  0.23345  Biso   1.000  C
  C119     1.0000 0.72430  0.54739  0.22430  Biso   1.000  C
  H31      1.0000 0.70282  0.55698  0.20282  Biso   1.000  H
  O82      1.0000 0.72200  0.35317  0.22200  Biso   1.000  O
  C120     1.0000 0.77570  0.45261  0.27570  Biso   1.000  C
  H32      1.0000 0.79718  0.44302  0.29718  Biso   1.000  H
  H33      1.0000 0.79718  0.70282  0.44302  Biso   1.000  H
  H34      1.0000 0.70282  0.79718  0.55698  Biso   1.000  H
  C121     1.0000 0.62826  0.75000  0.25000  Biso   1.000  C
  C122     1.0000 0.57710  0.75000  0.25000  Biso   1.000  C
  S31      1.0000 0.54739  0.72430  0.22430  Biso   1.000  S
  C123     1.0000 0.50000  0.73345  0.23345  Biso   1.000  C
  C124     1.0000 0.37174  0.75000  0.25000  Biso   1.000  C
  C125     1.0000 0.42290  0.75000  0.25000  Biso   1.000  C
  S32      1.0000 0.45261  0.77570  0.27570  Biso   1.000  S
  C126     1.0000 0.50000  0.76655  0.26655  Biso   1.000  C
  O83      1.0000 0.64683  0.72200  0.22200  Biso   1.000  O
  C127     1.0000 0.54739  0.77570  0.27570  Biso   1.000  C
  H35      1.0000 0.55698  0.79718  0.29718  Biso   1.000  H
  O84      1.0000 0.35317  0.77799  0.27799  Biso   1.000  O
  C128     1.0000 0.45261  0.72430  0.22430  Biso   1.000  C
  H36      1.0000 0.44302  0.70282  0.20282  Biso   1.000  H
  Zn31     1.0000 0.28838  0.78838  0.28838  Biso   1.000  Zn
  O85      1.0000 0.72200  0.72200  0.14683  Biso   1.000  O
  H37      1.0000 0.20282  0.44302  0.29718  Biso   1.000  H
  H38      1.0000 0.29718  0.55698  0.20282  Biso   1.000  H
  C129     1.0000 0.25000  0.25000  0.12826  Biso   1.000  C
  C130     1.0000 0.25000  0.25000  0.07710  Biso   1.000  C
  S33      1.0000 0.22430  0.22430  0.04739  Biso   1.000  S
  C131     1.0000 0.23345  0.23345  0.00000  Biso   1.000  C
  C132     1.0000 0.26655  0.26655  0.00000  Biso   1.000  C
  O86      1.0000 0.22200  0.22200  0.14683  Biso   1.000  O
  C133     1.0000 0.27570  0.27570  0.04739  Biso   1.000  C
  H39      1.0000 0.29718  0.29718  0.05698  Biso   1.000  H
  O87      1.0000 0.14683  0.22200  0.22200  Biso   1.000  O
  C134     1.0000 0.12826  0.25000  0.25000  Biso   1.000  C
  C135     1.0000 0.07710  0.25000  0.25000  Biso   1.000  C
  S34      1.0000 0.04739  0.27570  0.27570  Biso   1.000  S
  C136     1.0000 1.00000  0.26655  0.26655  Biso   1.000  C
  C137     1.0000 1.00000  0.23345  0.23345  Biso   1.000  C
  C138     1.0000 0.04739  0.22430  0.22430  Biso   1.000  C
  H40      1.0000 0.05698  0.20282  0.20282  Biso   1.000  H
  O88      1.0000 0.22200  0.14683  0.22200  Biso   1.000  O
  O89      1.0000 0.22200  0.72200  0.35317  Biso   1.000  O
  O90      1.0000 0.22200  0.22200  0.85317  Biso   1.000  O
  C139     1.0000 0.25000  0.25000  0.87174  Biso   1.000  C
  C140     1.0000 0.25000  0.25000  0.92290  Biso   1.000  C
  S35      1.0000 0.27570  0.27570  0.95261  Biso   1.000  S
  O91      1.0000 0.27799  0.27799  0.85317  Biso   1.000  O
  C141     1.0000 0.22430  0.22430  0.95261  Biso   1.000  C
  H41      1.0000 0.20282  0.20282  0.94302  Biso   1.000  H
  O92      1.0000 0.85317  0.27799  0.27799  Biso   1.000  O
  C142     1.0000 0.87174  0.25000  0.25000  Biso   1.000  C
  C143     1.0000 0.92290  0.25000  0.25000  Biso   1.000  C
  S36      1.0000 0.95261  0.22430  0.22430  Biso   1.000  S
  C144     1.0000 0.95261  0.27570  0.27570  Biso   1.000  C
  H42      1.0000 0.94302  0.29718  0.29718  Biso   1.000  H
  C145     1.0000 0.25000  0.62826  0.75000  Biso   1.000  C
  C146     1.0000 0.25000  0.57710  0.75000  Biso   1.000  C
  S37      1.0000 0.22430  0.54739  0.72430  Biso   1.000  S
  C147     1.0000 0.23345  0.50000  0.73345  Biso   1.000  C
  O93      1.0000 0.22200  0.35317  0.72200  Biso   1.000  O
  C148     1.0000 0.25000  0.37174  0.75000  Biso   1.000  C
  C149     1.0000 0.25000  0.42290  0.75000  Biso   1.000  C
  S38      1.0000 0.27570  0.45261  0.77570  Biso   1.000  S
  C150     1.0000 0.26655  0.50000  0.76655  Biso   1.000  C
  O94      1.0000 0.22200  0.64683  0.72200  Biso   1.000  O
  C151     1.0000 0.27570  0.54739  0.77570  Biso   1.000  C
  H43      1.0000 0.29718  0.55698  0.79718  Biso   1.000  H
  O95      1.0000 0.27799  0.35317  0.77799  Biso   1.000  O
  C152     1.0000 0.22430  0.45261  0.72430  Biso   1.000  C
  H44      1.0000 0.20282  0.44302  0.70282  Biso   1.000  H
  O96      1.0000 0.22200  0.72200  0.64683  Biso   1.000  O
  C153     1.0000 0.25000  0.75000  0.62826  Biso   1.000  C
  C154     1.0000 0.25000  0.75000  0.57710  Biso   1.000  C
  S39      1.0000 0.27570  0.77570  0.54739  Biso   1.000  S
  C155     1.0000 0.26655  0.76655  0.50000  Biso   1.000  C
  O97      1.0000 0.27799  0.77799  0.35317  Biso   1.000  O
  C156     1.0000 0.25000  0.75000  0.37174  Biso   1.000  C
  C157     1.0000 0.25000  0.75000  0.42290  Biso   1.000  C
  S40      1.0000 0.22430  0.72430  0.45261  Biso   1.000  S
  C158     1.0000 0.23345  0.73345  0.50000  Biso   1.000  C
  C159     1.0000 0.22430  0.72430  0.54739  Biso   1.000  C
  H45      1.0000 0.20282  0.70282  0.55698  Biso   1.000  H
  C160     1.0000 0.27570  0.77570  0.45261  Biso   1.000  C
  H46      1.0000 0.29718  0.79718  0.44302  Biso   1.000  H
  H47      1.0000 0.44302  0.79718  0.70282  Biso   1.000  H
  H48      1.0000 0.55698  0.70282  0.79718  Biso   1.000  H
  O98      1.0000 0.14683  0.72200  0.72200  Biso   1.000  O
  H49      1.0000 0.20282  0.79718  0.05698  Biso   1.000  H
  H50      1.0000 0.20282  0.55698  0.70282  Biso   1.000  H
  H51      1.0000 0.29718  0.44302  0.79718  Biso   1.000  H
  H52      1.0000 0.29718  0.70282  0.94302  Biso   1.000  H
  C161     1.0000 0.12826  0.75000  0.75000  Biso   1.000  C
  C162     1.0000 0.07710  0.75000  0.75000  Biso   1.000  C
  S41      1.0000 0.04739  0.72430  0.72430  Biso   1.000  S
  C163     1.0000 1.00000  0.73345  0.73345  Biso   1.000  C
  C164     1.0000 1.00000  0.76655  0.76655  Biso   1.000  C
  C165     1.0000 0.04739  0.77570  0.77570  Biso   1.000  C
  H53      1.0000 0.05698  0.79718  0.79718  Biso   1.000  H
  C166     1.0000 0.87174  0.75000  0.75000  Biso   1.000  C
  C167     1.0000 0.92290  0.75000  0.75000  Biso   1.000  C
  S42      1.0000 0.95261  0.77570  0.77570  Biso   1.000  S
  O99      1.0000 0.85317  0.77799  0.77799  Biso   1.000  O
  C168     1.0000 0.95261  0.72430  0.72430  Biso   1.000  C
  H54      1.0000 0.94302  0.70282  0.70282  Biso   1.000  H
  Zn32     1.0000 0.78838  0.78838  0.78838  Biso   1.000  Zn
  H55      1.0000 0.70282  0.29718  0.05698  Biso   1.000  H
  C169     1.0000 0.75000  0.12826  0.75000  Biso   1.000  C
  C170     1.0000 0.75000  0.07710  0.75000  Biso   1.000  C
  S43      1.0000 0.77570  0.04739  0.77570  Biso   1.000  S
  C171     1.0000 0.76655  1.00000  0.76655  Biso   1.000  C
  C172     1.0000 0.73345  1.00000  0.73345  Biso   1.000  C
  C173     1.0000 0.72430  0.04739  0.72430  Biso   1.000  C
  H56      1.0000 0.70282  0.05698  0.70282  Biso   1.000  H
  H57      1.0000 0.79718  0.20282  0.94302  Biso   1.000  H
  H58      1.0000 0.55698  0.29718  0.79718  Biso   1.000  H
  H59      1.0000 0.44302  0.20282  0.70282  Biso   1.000  H
  O100     1.0000 0.77799  0.85317  0.77799  Biso   1.000  O
  C174     1.0000 0.75000  0.87174  0.75000  Biso   1.000  C
  C175     1.0000 0.75000  0.92290  0.75000  Biso   1.000  C
  S44      1.0000 0.72430  0.95261  0.72430  Biso   1.000  S
  O101     1.0000 0.72200  0.85317  0.72200  Biso   1.000  O
  C176     1.0000 0.77570  0.95261  0.77570  Biso   1.000  C
  H60      1.0000 0.79718  0.94302  0.79718  Biso   1.000  H
  H61      1.0000 0.79718  0.05698  0.20282  Biso   1.000  H
  H62      1.0000 0.70282  0.94302  0.29718  Biso   1.000  H
  C177     1.0000 0.75000  0.75000  0.12826  Biso   1.000  C
  C178     1.0000 0.75000  0.75000  0.07710  Biso   1.000  C
  S45      1.0000 0.72430  0.72430  0.04739  Biso   1.000  S
  C179     1.0000 0.73345  0.73345  0.00000  Biso   1.000  C
  C180     1.0000 0.76655  0.76655  0.00000  Biso   1.000  C
  C181     1.0000 0.77570  0.77570  0.04739  Biso   1.000  C
  H63      1.0000 0.79718  0.79718  0.05698  Biso   1.000  H
  H64      1.0000 0.55698  0.70282  0.20282  Biso   1.000  H
  H65      1.0000 0.44302  0.79718  0.29718  Biso   1.000  H
  C182     1.0000 0.75000  0.75000  0.87174  Biso   1.000  C
  C183     1.0000 0.75000  0.75000  0.92290  Biso   1.000  C
  S46      1.0000 0.77570  0.77570  0.95261  Biso   1.000  S
  O102     1.0000 0.77799  0.77799  0.85317  Biso   1.000  O
  C184     1.0000 0.72430  0.72430  0.95261  Biso   1.000  C
  H66      1.0000 0.70282  0.70282  0.94302  Biso   1.000  H
  H67      1.0000 0.29718  0.05698  0.70282  Biso   1.000  H
  H68      1.0000 0.20282  0.94302  0.79718  Biso   1.000  H
  H69      1.0000 0.29718  0.79718  0.55698  Biso   1.000  H
  H70      1.0000 0.20282  0.70282  0.44302  Biso   1.000  H
  H71      1.0000 0.05698  0.70282  0.70282  Biso   1.000  H
  H72      1.0000 0.94302  0.79718  0.79718  Biso   1.000  H
  H73      1.0000 0.05698  0.20282  0.79718  Biso   1.000  H
  H74      1.0000 0.79718  0.05698  0.79718  Biso   1.000  H
  H75      1.0000 0.70282  0.20282  0.55698  Biso   1.000  H
  H76      1.0000 0.79718  0.29718  0.44302  Biso   1.000  H
  H77      1.0000 0.94302  0.29718  0.70282  Biso   1.000  H
  H78      1.0000 0.70282  0.94302  0.70282  Biso   1.000  H
  H79      1.0000 0.05698  0.70282  0.29718  Biso   1.000  H
  H80      1.0000 0.79718  0.55698  0.29718  Biso   1.000  H
  H81      1.0000 0.70282  0.44302  0.20282  Biso   1.000  H
  H82      1.0000 0.70282  0.70282  0.05698  Biso   1.000  H
  H83      1.0000 0.94302  0.79718  0.20282  Biso   1.000  H
  H84      1.0000 0.79718  0.79718  0.94302  Biso   1.000  H
  C185     1.0000 0.25000  0.12826  0.25000  Biso   1.000  C
  C186     1.0000 0.25000  0.07710  0.25000  Biso   1.000  C
  S47      1.0000 0.27570  0.04739  0.27570  Biso   1.000  S
  C187     1.0000 0.26655  1.00000  0.26655  Biso   1.000  C
  C188     1.0000 0.23345  1.00000  0.23345  Biso   1.000  C
  C189     1.0000 0.22430  0.04739  0.22430  Biso   1.000  C
  H85      1.0000 0.20282  0.05698  0.20282  Biso   1.000  H
  H86      1.0000 0.29718  0.20282  0.44302  Biso   1.000  H
  H87      1.0000 0.20282  0.29718  0.55698  Biso   1.000  H
  H88      1.0000 0.05698  0.29718  0.29718  Biso   1.000  H
  O103     1.0000 0.27799  0.85317  0.27799  Biso   1.000  O
  C190     1.0000 0.25000  0.87174  0.25000  Biso   1.000  C
  C191     1.0000 0.25000  0.92290  0.25000  Biso   1.000  C
  S48      1.0000 0.22430  0.95261  0.22430  Biso   1.000  S
  O104     1.0000 0.22200  0.85317  0.22200  Biso   1.000  O
  C192     1.0000 0.27570  0.95261  0.27570  Biso   1.000  C
  H89      1.0000 0.29718  0.94302  0.29718  Biso   1.000  H
  H90      1.0000 0.94302  0.20282  0.20282  Biso   1.000  H
  H91      1.0000 0.29718  0.05698  0.29718  Biso   1.000  H
  H92      1.0000 0.20282  0.20282  0.05698  Biso   1.000  H
  H93      1.0000 0.44302  0.29718  0.20282  Biso   1.000  H
  H94      1.0000 0.55698  0.20282  0.29718  Biso   1.000  H
  H95      1.0000 0.29718  0.29718  0.94302  Biso   1.000  H
  Zn33     1.0000 0.03427  0.03427  0.03427  Biso   1.000  Zn
  O105     1.0000 0.07264  0.07264  0.07264  Biso   1.000  O
  O106     1.0000 0.04465  0.96947  0.04465  Biso   1.000  O
  C193     1.0000 0.07264  0.95090  0.07264  Biso   1.000  C
  C194     1.0000 0.07264  0.89974  0.07264  Biso   1.000  C
  S49      1.0000 0.09834  0.87003  0.09834  Biso   1.000  S
  C195     1.0000 0.08919  0.82264  0.08919  Biso   1.000  C
  O107     1.0000 0.10064  0.67582  0.10064  Biso   1.000  O
  C196     1.0000 0.07264  0.69439  0.07264  Biso   1.000  C
  C197     1.0000 0.07264  0.74555  0.07264  Biso   1.000  C
  S50      1.0000 0.04694  0.77525  0.04694  Biso   1.000  S
  C198     1.0000 0.05609  0.82264  0.05609  Biso   1.000  C
  O108     1.0000 0.10064  0.96947  0.10064  Biso   1.000  O
  C199     1.0000 0.04694  0.87003  0.04694  Biso   1.000  C
  H96      1.0000 0.02546  0.87963  0.02546  Biso   1.000  H
  O109     1.0000 0.04465  0.67582  0.04465  Biso   1.000  O
  C200     1.0000 0.09834  0.77525  0.09834  Biso   1.000  C
  H97      1.0000 0.11983  0.76566  0.11983  Biso   1.000  H
  Zn34     1.0000 0.11102  0.03427  0.11102  Biso   1.000  Zn
  O110     1.0000 0.10064  0.04465  0.17582  Biso   1.000  O
  C201     1.0000 0.07264  0.07264  0.19439  Biso   1.000  C
  C202     1.0000 0.07264  0.07264  0.24555  Biso   1.000  C
  S51      1.0000 0.04694  0.09834  0.27525  Biso   1.000  S
  C203     1.0000 0.05609  0.08919  0.32264  Biso   1.000  C
  O111     1.0000 0.04465  0.10064  0.46947  Biso   1.000  O
  C204     1.0000 0.07264  0.07264  0.45090  Biso   1.000  C
  C205     1.0000 0.07264  0.07264  0.39974  Biso   1.000  C
  S52      1.0000 0.09834  0.04694  0.37003  Biso   1.000  S
  C206     1.0000 0.08919  0.05609  0.32264  Biso   1.000  C
  O112     1.0000 0.04465  0.10064  0.17582  Biso   1.000  O
  C207     1.0000 0.09834  0.04694  0.27525  Biso   1.000  C
  H98      1.0000 0.11983  0.02546  0.26566  Biso   1.000  H
  O113     1.0000 0.10064  0.04465  0.46947  Biso   1.000  O
  C208     1.0000 0.04694  0.09834  0.37003  Biso   1.000  C
  H99      1.0000 0.02546  0.11983  0.37963  Biso   1.000  H
  Zn35     1.0000 0.03427  0.11102  0.11102  Biso   1.000  Zn
  O114     1.0000 0.96947  0.10064  0.10064  Biso   1.000  O
  C209     1.0000 0.95090  0.07264  0.07264  Biso   1.000  C
  C210     1.0000 0.89974  0.07264  0.07264  Biso   1.000  C
  S53      1.0000 0.87003  0.04694  0.04694  Biso   1.000  S
  C211     1.0000 0.82264  0.05609  0.05609  Biso   1.000  C
  O115     1.0000 0.67582  0.04465  0.04465  Biso   1.000  O
  C212     1.0000 0.69439  0.07264  0.07264  Biso   1.000  C
  C213     1.0000 0.74555  0.07264  0.07264  Biso   1.000  C
  S54      1.0000 0.77525  0.09834  0.09834  Biso   1.000  S
  C214     1.0000 0.82264  0.08919  0.08919  Biso   1.000  C
  O116     1.0000 0.96947  0.04465  0.04465  Biso   1.000  O
  C215     1.0000 0.87003  0.09834  0.09834  Biso   1.000  C
  H100     1.0000 0.87963  0.11983  0.11983  Biso   1.000  H
  O117     1.0000 0.67582  0.10064  0.10064  Biso   1.000  O
  C216     1.0000 0.77525  0.04694  0.04694  Biso   1.000  C
  H101     1.0000 0.76566  0.02546  0.02546  Biso   1.000  H
  Zn36     1.0000 0.03427  0.61102  0.03427  Biso   1.000  Zn
  Zn37     1.0000 0.61102  0.03427  0.03427  Biso   1.000  Zn
  Zn38     1.0000 0.03427  0.11102  0.53427  Biso   1.000  Zn
  Zn39     1.0000 0.61102  0.11102  0.11102  Biso   1.000  Zn
  Zn40     1.0000 0.11102  0.03427  0.53427  Biso   1.000  Zn
  Zn41     1.0000 0.11102  0.61102  0.11102  Biso   1.000  Zn
  Zn42     1.0000 0.11102  0.11102  0.03427  Biso   1.000  Zn
  O118     1.0000 0.07264  0.57264  0.07264  Biso   1.000  O
  O119     1.0000 0.96947  0.60064  0.04465  Biso   1.000  O
  O120     1.0000 0.04465  0.17582  0.10064  Biso   1.000  O
  O121     1.0000 0.04465  0.60064  0.96947  Biso   1.000  O
  O122     1.0000 0.04465  0.04465  0.96947  Biso   1.000  O
  O123     1.0000 0.17582  0.04465  0.10064  Biso   1.000  O
  C217     1.0000 0.08919  0.32264  0.58919  Biso   1.000  C
  O124     1.0000 0.10064  0.17582  0.60064  Biso   1.000  O
  C218     1.0000 0.07264  0.19439  0.57264  Biso   1.000  C
  C219     1.0000 0.07264  0.24555  0.57264  Biso   1.000  C
  S55      1.0000 0.04694  0.27525  0.54694  Biso   1.000  S
  C220     1.0000 0.05609  0.32264  0.55609  Biso   1.000  C
  O125     1.0000 0.04465  0.17582  0.54465  Biso   1.000  O
  C221     1.0000 0.09834  0.27525  0.59834  Biso   1.000  C
  H102     1.0000 0.11983  0.26566  0.61983  Biso   1.000  H
  Zn43     1.0000 0.11102  0.11102  0.61102  Biso   1.000  Zn
  O126     1.0000 0.07264  0.07264  0.57264  Biso   1.000  O
  O127     1.0000 0.96947  0.10064  0.54465  Biso   1.000  O
  C222     1.0000 0.05609  0.58919  0.82264  Biso   1.000  C
  C223     1.0000 0.07264  0.57264  0.95090  Biso   1.000  C
  C224     1.0000 0.07264  0.57264  0.89974  Biso   1.000  C
  S56      1.0000 0.09834  0.54694  0.87003  Biso   1.000  S
  C225     1.0000 0.08919  0.55609  0.82264  Biso   1.000  C
  O128     1.0000 0.10064  0.54465  0.96947  Biso   1.000  O
  C226     1.0000 0.04694  0.59834  0.87003  Biso   1.000  C
  H103     1.0000 0.02546  0.61983  0.87963  Biso   1.000  H
  Zn44     1.0000 0.11102  0.53427  0.03427  Biso   1.000  Zn
  Zn45     1.0000 0.03427  0.53427  0.53427  Biso   1.000  Zn
  O129     1.0000 0.07264  0.57264  0.57264  Biso   1.000  O
  O130     1.0000 0.04465  0.46947  0.54465  Biso   1.000  O
  C227     1.0000 0.07264  0.45090  0.57264  Biso   1.000  C
  C228     1.0000 0.07264  0.39974  0.57264  Biso   1.000  C
  S57      1.0000 0.09834  0.37003  0.59834  Biso   1.000  S
  O131     1.0000 0.10064  0.46947  0.60064  Biso   1.000  O
  C229     1.0000 0.04694  0.37003  0.54694  Biso   1.000  C
  H104     1.0000 0.02546  0.37963  0.52546  Biso   1.000  H
  Zn46     1.0000 0.11102  0.53427  0.61102  Biso   1.000  Zn
  O132     1.0000 0.10064  0.54465  0.67582  Biso   1.000  O
  C230     1.0000 0.07264  0.57264  0.69439  Biso   1.000  C
  C231     1.0000 0.07264  0.57264  0.74555  Biso   1.000  C
  S58      1.0000 0.04694  0.59834  0.77525  Biso   1.000  S
  O133     1.0000 0.04465  0.60064  0.67582  Biso   1.000  O
  C232     1.0000 0.09834  0.54694  0.77525  Biso   1.000  C
  H105     1.0000 0.11983  0.52546  0.76566  Biso   1.000  H
  Zn47     1.0000 0.03427  0.61102  0.61102  Biso   1.000  Zn
  O134     1.0000 0.96947  0.60064  0.60064  Biso   1.000  O
  C233     1.0000 0.95090  0.57264  0.57264  Biso   1.000  C
  C234     1.0000 0.89974  0.57264  0.57264  Biso   1.000  C
  S59      1.0000 0.87003  0.54694  0.54694  Biso   1.000  S
  C235     1.0000 0.82264  0.55609  0.55609  Biso   1.000  C
  O135     1.0000 0.67582  0.54465  0.54465  Biso   1.000  O
  C236     1.0000 0.69439  0.57264  0.57264  Biso   1.000  C
  C237     1.0000 0.74555  0.57264  0.57264  Biso   1.000  C
  S60      1.0000 0.77525  0.59834  0.59834  Biso   1.000  S
  C238     1.0000 0.82264  0.58919  0.58919  Biso   1.000  C
  O136     1.0000 0.96947  0.54465  0.54465  Biso   1.000  O
  C239     1.0000 0.87003  0.59834  0.59834  Biso   1.000  C
  H106     1.0000 0.87963  0.61983  0.61983  Biso   1.000  H
  O137     1.0000 0.67582  0.60064  0.60064  Biso   1.000  O
  C240     1.0000 0.77525  0.54694  0.54694  Biso   1.000  C
  H107     1.0000 0.76566  0.52546  0.52546  Biso   1.000  H
  Zn48     1.0000 0.61102  0.53427  0.53427  Biso   1.000  Zn
  Zn49     1.0000 0.61102  0.61102  0.61102  Biso   1.000  Zn
  Zn50     1.0000 0.11102  0.61102  0.53427  Biso   1.000  Zn
  O138     1.0000 0.04465  0.67582  0.60064  Biso   1.000  O
  O139     1.0000 0.04465  0.54465  0.46947  Biso   1.000  O
  O140     1.0000 0.17582  0.54465  0.60064  Biso   1.000  O
  C241     1.0000 0.32264  0.05609  0.55609  Biso   1.000  C
  O141     1.0000 0.17582  0.04465  0.54465  Biso   1.000  O
  C242     1.0000 0.19439  0.07264  0.57264  Biso   1.000  C
  C243     1.0000 0.24555  0.07264  0.57264  Biso   1.000  C
  S61      1.0000 0.27525  0.09834  0.59834  Biso   1.000  S
  C244     1.0000 0.32264  0.08919  0.58919  Biso   1.000  C
  O142     1.0000 0.17582  0.10064  0.60064  Biso   1.000  O
  C245     1.0000 0.27525  0.04694  0.54694  Biso   1.000  C
  H108     1.0000 0.26566  0.02546  0.52546  Biso   1.000  H
  C246     1.0000 0.55609  0.08919  0.82264  Biso   1.000  C
  O143     1.0000 0.54465  0.10064  0.96947  Biso   1.000  O
  C247     1.0000 0.57264  0.07264  0.95090  Biso   1.000  C
  C248     1.0000 0.57264  0.07264  0.89974  Biso   1.000  C
  S62      1.0000 0.59834  0.04694  0.87003  Biso   1.000  S
  C249     1.0000 0.58919  0.05609  0.82264  Biso   1.000  C
  O144     1.0000 0.60064  0.04465  0.96947  Biso   1.000  O
  C250     1.0000 0.54694  0.09834  0.87003  Biso   1.000  C
  H109     1.0000 0.52546  0.11983  0.87963  Biso   1.000  H
  Zn51     1.0000 0.53427  0.11102  0.03427  Biso   1.000  Zn
  Zn52     1.0000 0.53427  0.03427  0.53427  Biso   1.000  Zn
  O145     1.0000 0.57264  0.07264  0.57264  Biso   1.000  O
  O146     1.0000 0.54465  0.96947  0.54465  Biso   1.000  O
  C251     1.0000 0.57264  0.95090  0.57264  Biso   1.000  C
  C252     1.0000 0.57264  0.89974  0.57264  Biso   1.000  C
  S63      1.0000 0.59834  0.87003  0.59834  Biso   1.000  S
  C253     1.0000 0.58919  0.82264  0.58919  Biso   1.000  C
  O147     1.0000 0.60064  0.67582  0.60064  Biso   1.000  O
  C254     1.0000 0.57264  0.69439  0.57264  Biso   1.000  C
  C255     1.0000 0.57264  0.74555  0.57264  Biso   1.000  C
  S64      1.0000 0.54694  0.77525  0.54694  Biso   1.000  S
  C256     1.0000 0.55609  0.82264  0.55609  Biso   1.000  C
  O148     1.0000 0.60064  0.96947  0.60064  Biso   1.000  O
  C257     1.0000 0.54694  0.87003  0.54694  Biso   1.000  C
  H110     1.0000 0.52546  0.87963  0.52546  Biso   1.000  H
  O149     1.0000 0.54465  0.67582  0.54465  Biso   1.000  O
  C258     1.0000 0.59834  0.77525  0.59834  Biso   1.000  C
  H111     1.0000 0.61983  0.76566  0.61983  Biso   1.000  H
  Zn53     1.0000 0.61102  0.03427  0.61102  Biso   1.000  Zn
  O150     1.0000 0.60064  0.04465  0.67582  Biso   1.000  O
  C259     1.0000 0.57264  0.07264  0.69439  Biso   1.000  C
  C260     1.0000 0.57264  0.07264  0.74555  Biso   1.000  C
  S65      1.0000 0.54694  0.09834  0.77525  Biso   1.000  S
  O151     1.0000 0.54465  0.10064  0.67582  Biso   1.000  O
  C261     1.0000 0.59834  0.04694  0.77525  Biso   1.000  C
  H112     1.0000 0.61983  0.02546  0.76566  Biso   1.000  H
  Zn54     1.0000 0.53427  0.11102  0.61102  Biso   1.000  Zn
  O152     1.0000 0.46947  0.10064  0.60064  Biso   1.000  O
  C262     1.0000 0.45090  0.07264  0.57264  Biso   1.000  C
  C263     1.0000 0.39974  0.07264  0.57264  Biso   1.000  C
  S66      1.0000 0.37003  0.04694  0.54694  Biso   1.000  S
  O153     1.0000 0.46947  0.04465  0.54465  Biso   1.000  O
  C264     1.0000 0.37003  0.09834  0.59834  Biso   1.000  C
  H113     1.0000 0.37963  0.11983  0.61983  Biso   1.000  H
  Zn55     1.0000 0.53427  0.61102  0.53427  Biso   1.000  Zn
  Zn56     1.0000 0.61102  0.11102  0.53427  Biso   1.000  Zn
  O154     1.0000 0.57264  0.57264  0.57264  Biso   1.000  O
  O155     1.0000 0.46947  0.60064  0.54465  Biso   1.000  O
  O156     1.0000 0.54465  0.17582  0.60064  Biso   1.000  O
  O157     1.0000 0.54465  0.60064  0.46947  Biso   1.000  O
  O158     1.0000 0.54465  0.04465  0.46947  Biso   1.000  O
  O159     1.0000 0.67582  0.04465  0.60064  Biso   1.000  O
  C265     1.0000 0.32264  0.55609  0.05609  Biso   1.000  C
  O160     1.0000 0.17582  0.54465  0.04465  Biso   1.000  O
  C266     1.0000 0.19439  0.57264  0.07264  Biso   1.000  C
  C267     1.0000 0.24555  0.57264  0.07264  Biso   1.000  C
  S67      1.0000 0.27525  0.59834  0.09834  Biso   1.000  S
  C268     1.0000 0.32264  0.58919  0.08919  Biso   1.000  C
  O161     1.0000 0.17582  0.60064  0.10064  Biso   1.000  O
  C269     1.0000 0.27525  0.54694  0.04694  Biso   1.000  C
  H114     1.0000 0.26566  0.52546  0.02546  Biso   1.000  H
  C270     1.0000 0.58919  0.32264  0.08919  Biso   1.000  C
  O162     1.0000 0.60064  0.17582  0.10064  Biso   1.000  O
  C271     1.0000 0.57264  0.19439  0.07264  Biso   1.000  C
  C272     1.0000 0.57264  0.24555  0.07264  Biso   1.000  C
  S68      1.0000 0.54694  0.27525  0.04694  Biso   1.000  S
  C273     1.0000 0.55609  0.32264  0.05609  Biso   1.000  C
  O163     1.0000 0.54465  0.17582  0.04465  Biso   1.000  O
  C274     1.0000 0.59834  0.27525  0.09834  Biso   1.000  C
  H115     1.0000 0.61983  0.26566  0.11983  Biso   1.000  H
  O164     1.0000 0.57264  0.07264  0.07264  Biso   1.000  O
  O165     1.0000 0.46947  0.10064  0.04465  Biso   1.000  O
  Zn57     1.0000 0.53427  0.53427  0.03427  Biso   1.000  Zn
  O166     1.0000 0.57264  0.57264  0.07264  Biso   1.000  O
  O167     1.0000 0.54465  0.46947  0.04465  Biso   1.000  O
  C275     1.0000 0.57264  0.45090  0.07264  Biso   1.000  C
  C276     1.0000 0.57264  0.39974  0.07264  Biso   1.000  C
  S69      1.0000 0.59834  0.37003  0.09834  Biso   1.000  S
  O168     1.0000 0.60064  0.46947  0.10064  Biso   1.000  O
  C277     1.0000 0.54694  0.37003  0.04694  Biso   1.000  C
  H116     1.0000 0.52546  0.37963  0.02546  Biso   1.000  H
  Zn58     1.0000 0.61102  0.53427  0.11102  Biso   1.000  Zn
  O169     1.0000 0.60064  0.54465  0.17582  Biso   1.000  O
  C278     1.0000 0.57264  0.57264  0.19439  Biso   1.000  C
  C279     1.0000 0.57264  0.57264  0.24555  Biso   1.000  C
  S70      1.0000 0.54694  0.59834  0.27525  Biso   1.000  S
  C280     1.0000 0.55609  0.58919  0.32264  Biso   1.000  C
  C281     1.0000 0.57264  0.57264  0.45090  Biso   1.000  C
  C282     1.0000 0.57264  0.57264  0.39974  Biso   1.000  C
  S71      1.0000 0.59834  0.54694  0.37003  Biso   1.000  S
  C283     1.0000 0.58919  0.55609  0.32264  Biso   1.000  C
  O170     1.0000 0.54465  0.60064  0.17582  Biso   1.000  O
  C284     1.0000 0.59834  0.54694  0.27525  Biso   1.000  C
  H117     1.0000 0.61983  0.52546  0.26566  Biso   1.000  H
  O171     1.0000 0.60064  0.54465  0.46947  Biso   1.000  O
  C285     1.0000 0.54694  0.59834  0.37003  Biso   1.000  C
  H118     1.0000 0.52546  0.61983  0.37963  Biso   1.000  H
  Zn59     1.0000 0.53427  0.61102  0.11102  Biso   1.000  Zn
  O172     1.0000 0.46947  0.60064  0.10064  Biso   1.000  O
  C286     1.0000 0.45090  0.57264  0.07264  Biso   1.000  C
  C287     1.0000 0.39974  0.57264  0.07264  Biso   1.000  C
  S72      1.0000 0.37003  0.54694  0.04694  Biso   1.000  S
  O173     1.0000 0.46947  0.54465  0.04465  Biso   1.000  O
  C288     1.0000 0.37003  0.59834  0.09834  Biso   1.000  C
  H119     1.0000 0.37963  0.61983  0.11983  Biso   1.000  H
  Zn60     1.0000 0.61102  0.61102  0.03427  Biso   1.000  Zn
  O174     1.0000 0.54465  0.67582  0.10064  Biso   1.000  O
  O175     1.0000 0.54465  0.54465  0.96947  Biso   1.000  O
  O176     1.0000 0.67582  0.54465  0.10064  Biso   1.000  O
  H120     1.0000 0.61983  0.87963  0.61983  Biso   1.000  H
  H121     1.0000 0.52546  0.76566  0.52546  Biso   1.000  H
  C289     1.0000 0.57264  0.07264  0.45090  Biso   1.000  C
  C290     1.0000 0.57264  0.07264  0.39974  Biso   1.000  C
  S73      1.0000 0.59834  0.09834  0.37003  Biso   1.000  S
  C291     1.0000 0.58919  0.08919  0.32264  Biso   1.000  C
  O177     1.0000 0.60064  0.10064  0.17582  Biso   1.000  O
  C292     1.0000 0.57264  0.07264  0.19439  Biso   1.000  C
  C293     1.0000 0.57264  0.07264  0.24555  Biso   1.000  C
  S74      1.0000 0.54694  0.04694  0.27525  Biso   1.000  S
  C294     1.0000 0.55609  0.05609  0.32264  Biso   1.000  C
  O178     1.0000 0.60064  0.10064  0.46947  Biso   1.000  O
  C295     1.0000 0.54694  0.04694  0.37003  Biso   1.000  C
  H122     1.0000 0.52546  0.02546  0.37963  Biso   1.000  H
  O179     1.0000 0.54465  0.04465  0.17582  Biso   1.000  O
  C296     1.0000 0.59834  0.09834  0.27525  Biso   1.000  C
  H123     1.0000 0.61983  0.11983  0.26566  Biso   1.000  H
  O180     1.0000 0.67582  0.10064  0.54465  Biso   1.000  O
  C297     1.0000 0.69439  0.07264  0.57264  Biso   1.000  C
  C298     1.0000 0.74555  0.07264  0.57264  Biso   1.000  C
  S75      1.0000 0.77525  0.04694  0.59834  Biso   1.000  S
  C299     1.0000 0.82264  0.05609  0.58919  Biso   1.000  C
  O181     1.0000 0.96947  0.04465  0.60064  Biso   1.000  O
  C300     1.0000 0.95090  0.07264  0.57264  Biso   1.000  C
  C301     1.0000 0.89974  0.07264  0.57264  Biso   1.000  C
  S76      1.0000 0.87003  0.09834  0.54694  Biso   1.000  S
  C302     1.0000 0.82264  0.08919  0.55609  Biso   1.000  C
  C303     1.0000 0.77525  0.09834  0.54694  Biso   1.000  C
  H124     1.0000 0.76566  0.11983  0.52546  Biso   1.000  H
  C304     1.0000 0.87003  0.04694  0.59834  Biso   1.000  C
  H125     1.0000 0.87963  0.02546  0.61983  Biso   1.000  H
  Zn61     1.0000 0.03427  0.03427  0.61102  Biso   1.000  Zn
  Zn62     1.0000 0.53427  0.03427  0.11102  Biso   1.000  Zn
  O182     1.0000 0.60064  0.17582  0.54465  Biso   1.000  O
  O183     1.0000 0.60064  0.60064  0.67582  Biso   1.000  O
  O184     1.0000 0.60064  0.67582  0.04465  Biso   1.000  O
  C305     1.0000 0.57264  0.69439  0.07264  Biso   1.000  C
  C306     1.0000 0.57264  0.74555  0.07264  Biso   1.000  C
  S77      1.0000 0.54694  0.77525  0.09834  Biso   1.000  S
  C307     1.0000 0.55609  0.82264  0.08919  Biso   1.000  C
  O185     1.0000 0.54465  0.96947  0.10064  Biso   1.000  O
  C308     1.0000 0.57264  0.95090  0.07264  Biso   1.000  C
  C309     1.0000 0.57264  0.89974  0.07264  Biso   1.000  C
  S78      1.0000 0.59834  0.87003  0.04694  Biso   1.000  S
  C310     1.0000 0.58919  0.82264  0.05609  Biso   1.000  C
  C311     1.0000 0.59834  0.77525  0.04694  Biso   1.000  C
  H126     1.0000 0.61983  0.76566  0.02546  Biso   1.000  H
  O186     1.0000 0.60064  0.96947  0.04465  Biso   1.000  O
  C312     1.0000 0.54694  0.87003  0.09834  Biso   1.000  C
  H127     1.0000 0.52546  0.87963  0.11983  Biso   1.000  H
  H128     1.0000 0.52546  0.61983  0.26566  Biso   1.000  H
  H129     1.0000 0.61983  0.52546  0.37963  Biso   1.000  H
  C313     1.0000 0.69439  0.57264  0.07264  Biso   1.000  C
  C314     1.0000 0.74555  0.57264  0.07264  Biso   1.000  C
  S79      1.0000 0.77525  0.59834  0.04694  Biso   1.000  S
  C315     1.0000 0.82264  0.58919  0.05609  Biso   1.000  C
  C316     1.0000 0.95090  0.57264  0.07264  Biso   1.000  C
  C317     1.0000 0.89974  0.57264  0.07264  Biso   1.000  C
  S80      1.0000 0.87003  0.54694  0.09834  Biso   1.000  S
  C318     1.0000 0.82264  0.55609  0.08919  Biso   1.000  C
  O187     1.0000 0.67582  0.60064  0.04465  Biso   1.000  O
  C319     1.0000 0.77525  0.54694  0.09834  Biso   1.000  C
  H130     1.0000 0.76566  0.52546  0.11983  Biso   1.000  H
  O188     1.0000 0.96947  0.54465  0.10064  Biso   1.000  O
  C320     1.0000 0.87003  0.59834  0.04694  Biso   1.000  C
  H131     1.0000 0.87963  0.61983  0.02546  Biso   1.000  H
  Zn63     1.0000 0.03427  0.53427  0.11102  Biso   1.000  Zn
  O189     1.0000 0.60064  0.60064  0.96947  Biso   1.000  O
  H132     1.0000 0.11983  0.87963  0.11983  Biso   1.000  H
  H133     1.0000 0.02546  0.76566  0.02546  Biso   1.000  H
  C321     1.0000 0.07264  0.07264  0.95090  Biso   1.000  C
  C322     1.0000 0.07264  0.07264  0.89974  Biso   1.000  C
  S81      1.0000 0.09834  0.09834  0.87003  Biso   1.000  S
  C323     1.0000 0.08919  0.08919  0.82264  Biso   1.000  C
  C324     1.0000 0.05609  0.05609  0.82264  Biso   1.000  C
  O190     1.0000 0.10064  0.10064  0.96947  Biso   1.000  O
  C325     1.0000 0.04694  0.04694  0.87003  Biso   1.000  C
  H134     1.0000 0.02546  0.02546  0.87963  Biso   1.000  H
  O191     1.0000 0.17582  0.10064  0.04465  Biso   1.000  O
  C326     1.0000 0.19439  0.07264  0.07264  Biso   1.000  C
  C327     1.0000 0.24555  0.07264  0.07264  Biso   1.000  C
  S82      1.0000 0.27525  0.04694  0.09834  Biso   1.000  S
  C328     1.0000 0.32264  0.05609  0.08919  Biso   1.000  C
  C329     1.0000 0.32264  0.08919  0.05609  Biso   1.000  C
  C330     1.0000 0.27525  0.09834  0.04694  Biso   1.000  C
  H135     1.0000 0.26566  0.11983  0.02546  Biso   1.000  H
  O192     1.0000 0.10064  0.17582  0.04465  Biso   1.000  O
  O193     1.0000 0.10064  0.60064  0.17582  Biso   1.000  O
  O194     1.0000 0.10064  0.10064  0.67582  Biso   1.000  O
  C331     1.0000 0.07264  0.07264  0.69439  Biso   1.000  C
  C332     1.0000 0.07264  0.07264  0.74555  Biso   1.000  C
  S83      1.0000 0.04694  0.04694  0.77525  Biso   1.000  S
  O195     1.0000 0.04465  0.04465  0.67582  Biso   1.000  O
  C333     1.0000 0.09834  0.09834  0.77525  Biso   1.000  C
  H136     1.0000 0.11983  0.11983  0.76566  Biso   1.000  H
  O196     1.0000 0.46947  0.04465  0.10064  Biso   1.000  O
  C334     1.0000 0.45090  0.07264  0.07264  Biso   1.000  C
  C335     1.0000 0.39974  0.07264  0.07264  Biso   1.000  C
  S84      1.0000 0.37003  0.09834  0.04694  Biso   1.000  S
  C336     1.0000 0.37003  0.04694  0.09834  Biso   1.000  C
  H137     1.0000 0.37963  0.02546  0.11983  Biso   1.000  H
  C337     1.0000 0.07264  0.69439  0.57264  Biso   1.000  C
  C338     1.0000 0.07264  0.74555  0.57264  Biso   1.000  C
  S85      1.0000 0.09834  0.77525  0.54694  Biso   1.000  S
  C339     1.0000 0.08919  0.82264  0.55609  Biso   1.000  C
  O197     1.0000 0.10064  0.96947  0.54465  Biso   1.000  O
  C340     1.0000 0.07264  0.95090  0.57264  Biso   1.000  C
  C341     1.0000 0.07264  0.89974  0.57264  Biso   1.000  C
  S86      1.0000 0.04694  0.87003  0.59834  Biso   1.000  S
  C342     1.0000 0.05609  0.82264  0.58919  Biso   1.000  C
  O198     1.0000 0.10064  0.67582  0.54465  Biso   1.000  O
  C343     1.0000 0.04694  0.77525  0.59834  Biso   1.000  C
  H138     1.0000 0.02546  0.76566  0.61983  Biso   1.000  H
  O199     1.0000 0.04465  0.96947  0.60064  Biso   1.000  O
  C344     1.0000 0.09834  0.87003  0.54694  Biso   1.000  C
  H139     1.0000 0.11983  0.87963  0.52546  Biso   1.000  H
  O200     1.0000 0.10064  0.60064  0.46947  Biso   1.000  O
  C345     1.0000 0.07264  0.57264  0.45090  Biso   1.000  C
  C346     1.0000 0.07264  0.57264  0.39974  Biso   1.000  C
  S87      1.0000 0.04694  0.54694  0.37003  Biso   1.000  S
  C347     1.0000 0.05609  0.55609  0.32264  Biso   1.000  C
  O201     1.0000 0.04465  0.54465  0.17582  Biso   1.000  O
  C348     1.0000 0.07264  0.57264  0.19439  Biso   1.000  C
  C349     1.0000 0.07264  0.57264  0.24555  Biso   1.000  C
  S88      1.0000 0.09834  0.59834  0.27525  Biso   1.000  S
  C350     1.0000 0.08919  0.58919  0.32264  Biso   1.000  C
  C351     1.0000 0.09834  0.59834  0.37003  Biso   1.000  C
  H140     1.0000 0.11983  0.61983  0.37963  Biso   1.000  H
  C352     1.0000 0.04694  0.54694  0.27525  Biso   1.000  C
  H141     1.0000 0.02546  0.52546  0.26566  Biso   1.000  H
  H142     1.0000 0.87963  0.52546  0.52546  Biso   1.000  H
  H143     1.0000 0.76566  0.61983  0.61983  Biso   1.000  H
  O202     1.0000 0.17582  0.60064  0.54465  Biso   1.000  O
  H144     1.0000 0.11983  0.52546  0.87963  Biso   1.000  H
  H145     1.0000 0.11983  0.76566  0.52546  Biso   1.000  H
  H146     1.0000 0.02546  0.87963  0.61983  Biso   1.000  H
  H147     1.0000 0.02546  0.61983  0.76566  Biso   1.000  H
  C353     1.0000 0.19439  0.57264  0.57264  Biso   1.000  C
  C354     1.0000 0.24555  0.57264  0.57264  Biso   1.000  C
  S89      1.0000 0.27525  0.59834  0.54694  Biso   1.000  S
  C355     1.0000 0.32264  0.58919  0.55609  Biso   1.000  C
  C356     1.0000 0.32264  0.55609  0.58919  Biso   1.000  C
  C357     1.0000 0.27525  0.54694  0.59834  Biso   1.000  C
  H148     1.0000 0.26566  0.52546  0.61983  Biso   1.000  H
  C358     1.0000 0.45090  0.57264  0.57264  Biso   1.000  C
  C359     1.0000 0.39974  0.57264  0.57264  Biso   1.000  C
  S90      1.0000 0.37003  0.54694  0.59834  Biso   1.000  S
  O203     1.0000 0.46947  0.54465  0.60064  Biso   1.000  O
  C360     1.0000 0.37003  0.59834  0.54694  Biso   1.000  C
  H149     1.0000 0.37963  0.61983  0.52546  Biso   1.000  H
  Zn64     1.0000 0.53427  0.53427  0.61102  Biso   1.000  Zn
  H150     1.0000 0.61983  0.02546  0.87963  Biso   1.000  H
  C361     1.0000 0.57264  0.19439  0.57264  Biso   1.000  C
  C362     1.0000 0.57264  0.24555  0.57264  Biso   1.000  C
  S91      1.0000 0.54694  0.27525  0.59834  Biso   1.000  S
  C363     1.0000 0.55609  0.32264  0.58919  Biso   1.000  C
  C364     1.0000 0.58919  0.32264  0.55609  Biso   1.000  C
  C365     1.0000 0.59834  0.27525  0.54694  Biso   1.000  C
  H151     1.0000 0.61983  0.26566  0.52546  Biso   1.000  H
  H152     1.0000 0.52546  0.11983  0.76566  Biso   1.000  H
  H153     1.0000 0.76566  0.02546  0.61983  Biso   1.000  H
  H154     1.0000 0.87963  0.11983  0.52546  Biso   1.000  H
  O204     1.0000 0.54465  0.46947  0.60064  Biso   1.000  O
  C366     1.0000 0.57264  0.45090  0.57264  Biso   1.000  C
  C367     1.0000 0.57264  0.39974  0.57264  Biso   1.000  C
  S92      1.0000 0.59834  0.37003  0.54694  Biso   1.000  S
  O205     1.0000 0.60064  0.46947  0.54465  Biso   1.000  O
  C368     1.0000 0.54694  0.37003  0.59834  Biso   1.000  C
  H155     1.0000 0.52546  0.37963  0.61983  Biso   1.000  H
  H156     1.0000 0.52546  0.26566  0.02546  Biso   1.000  H
  H157     1.0000 0.61983  0.37963  0.11983  Biso   1.000  H
  C369     1.0000 0.57264  0.57264  0.95090  Biso   1.000  C
  C370     1.0000 0.57264  0.57264  0.89974  Biso   1.000  C
  S93      1.0000 0.59834  0.59834  0.87003  Biso   1.000  S
  C371     1.0000 0.58919  0.58919  0.82264  Biso   1.000  C
  C372     1.0000 0.55609  0.55609  0.82264  Biso   1.000  C
  C373     1.0000 0.54694  0.54694  0.87003  Biso   1.000  C
  H158     1.0000 0.52546  0.52546  0.87963  Biso   1.000  H
  H159     1.0000 0.76566  0.61983  0.02546  Biso   1.000  H
  H160     1.0000 0.87963  0.52546  0.11983  Biso   1.000  H
  C374     1.0000 0.57264  0.57264  0.69439  Biso   1.000  C
  C375     1.0000 0.57264  0.57264  0.74555  Biso   1.000  C
  S94      1.0000 0.54694  0.54694  0.77525  Biso   1.000  S
  O206     1.0000 0.54465  0.54465  0.67582  Biso   1.000  O
  C376     1.0000 0.59834  0.59834  0.77525  Biso   1.000  C
  H161     1.0000 0.61983  0.61983  0.76566  Biso   1.000  H
  H162     1.0000 0.02546  0.26566  0.52546  Biso   1.000  H
  H163     1.0000 0.11983  0.37963  0.61983  Biso   1.000  H
  H164     1.0000 0.02546  0.52546  0.37963  Biso   1.000  H
  H165     1.0000 0.11983  0.61983  0.26566  Biso   1.000  H
  H166     1.0000 0.26566  0.61983  0.52546  Biso   1.000  H
  H167     1.0000 0.37963  0.52546  0.61983  Biso   1.000  H
  H168     1.0000 0.26566  0.11983  0.61983  Biso   1.000  H
  H169     1.0000 0.52546  0.26566  0.61983  Biso   1.000  H
  H170     1.0000 0.61983  0.11983  0.37963  Biso   1.000  H
  H171     1.0000 0.52546  0.02546  0.26566  Biso   1.000  H
  H172     1.0000 0.37963  0.02546  0.52546  Biso   1.000  H
  H173     1.0000 0.61983  0.37963  0.52546  Biso   1.000  H
  H174     1.0000 0.26566  0.61983  0.11983  Biso   1.000  H
  H175     1.0000 0.52546  0.76566  0.11983  Biso   1.000  H
  H176     1.0000 0.61983  0.87963  0.02546  Biso   1.000  H
  H177     1.0000 0.61983  0.61983  0.87963  Biso   1.000  H
  H178     1.0000 0.37963  0.52546  0.02546  Biso   1.000  H
  H179     1.0000 0.52546  0.52546  0.76566  Biso   1.000  H
  C377     1.0000 0.07264  0.19439  0.07264  Biso   1.000  C
  C378     1.0000 0.07264  0.24555  0.07264  Biso   1.000  C
  S95      1.0000 0.04694  0.27525  0.09834  Biso   1.000  S
  C379     1.0000 0.05609  0.32264  0.08919  Biso   1.000  C
  C380     1.0000 0.08919  0.32264  0.05609  Biso   1.000  C
  C381     1.0000 0.09834  0.27525  0.04694  Biso   1.000  C
  H180     1.0000 0.11983  0.26566  0.02546  Biso   1.000  H
  H181     1.0000 0.02546  0.11983  0.26566  Biso   1.000  H
  H182     1.0000 0.11983  0.02546  0.37963  Biso   1.000  H
  H183     1.0000 0.26566  0.02546  0.11983  Biso   1.000  H
  O207     1.0000 0.04465  0.46947  0.10064  Biso   1.000  O
  C382     1.0000 0.07264  0.45090  0.07264  Biso   1.000  C
  C383     1.0000 0.07264  0.39974  0.07264  Biso   1.000  C
  S96      1.0000 0.09834  0.37003  0.04694  Biso   1.000  S
  O208     1.0000 0.10064  0.46947  0.04465  Biso   1.000  O
  C384     1.0000 0.04694  0.37003  0.09834  Biso   1.000  C
  H184     1.0000 0.02546  0.37963  0.11983  Biso   1.000  H
  H185     1.0000 0.37963  0.11983  0.02546  Biso   1.000  H
  H186     1.0000 0.02546  0.26566  0.11983  Biso   1.000  H
  H187     1.0000 0.11983  0.11983  0.87963  Biso   1.000  H
  H188     1.0000 0.87963  0.02546  0.02546  Biso   1.000  H
  H189     1.0000 0.76566  0.11983  0.11983  Biso   1.000  H
