data_image0
_cell_length_a       27.9293
_cell_length_b       27.9293
_cell_length_c       27.9293
_cell_angle_alpha    90
_cell_angle_beta     90
_cell_angle_gamma    90

_symmetry_space_group_name_H-M    "P 1"
_symmetry_int_tables_number       1

loop_
  _symmetry_equiv_pos_as_xyz
  'x, y, z'

loop_
  _atom_site_label
  _atom_site_occupancy
  _atom_site_fract_x
  _atom_site_fract_y
  _atom_site_fract_z
  _atom_site_thermal_displace_type
  _atom_site_B_iso_or_equiv
  _atom_site_type_symbol
  C1       1.0000 0.54334  0.00484  0.60106  Biso   1.000  C
  C2       1.0000 0.49952  0.00315  0.62539  Biso   1.000  C
  C3       1.0000 0.45589  0.00241  0.60077  Biso   1.000  C
  C4       1.0000 0.45576  0.00290  0.55005  Biso   1.000  C
  C5       1.0000 0.49985  0.00461  0.52472  Biso   1.000  C
  C6       1.0000 0.54381  0.00557  0.55030  Biso   1.000  C
  C7       1.0000 0.58701  0.00612  0.52444  Biso   1.000  C
  C8       1.0000 0.58718  0.00594  0.47453  Biso   1.000  C
  C9       1.0000 0.54415  0.00535  0.44839  Biso   1.000  C
  C10      1.0000 0.49999  0.00473  0.47369  Biso   1.000  C
  C11      1.0000 0.41276  0.00111  0.52404  Biso   1.000  C
  C12      1.0000 0.41287  0.00101  0.47414  Biso   1.000  C
  C13      1.0000 0.45598  0.00338  0.44814  Biso   1.000  C
  C14      1.0000 0.45641  0.00305  0.39730  Biso   1.000  C
  C15      1.0000 0.50039  0.00286  0.37309  Biso   1.000  C
  C16      1.0000 0.54408  0.00415  0.39765  Biso   1.000  C
  C17      1.0000 0.62124  0.00617  0.54260  Biso   1.000  C
  C18      1.0000 0.62152  0.00584  0.45659  Biso   1.000  C
  C19      1.0000 0.37852  0.99925  0.54212  Biso   1.000  C
  C20      1.0000 0.37866  0.99839  0.45621  Biso   1.000  C
  C21      1.0000 0.49935  0.00270  0.66423  Biso   1.000  C
  C22      1.0000 0.50066  0.00241  0.33425  Biso   1.000  C
  C23      1.0000 0.54297  0.60715  0.99764  Biso   1.000  C
  C24      1.0000 0.49915  0.63149  0.99767  Biso   1.000  C
  C25      1.0000 0.45540  0.60705  0.99679  Biso   1.000  C
  C26      1.0000 0.45517  0.55630  0.99677  Biso   1.000  C
  C27      1.0000 0.49925  0.53090  0.99729  Biso   1.000  C
  C28      1.0000 0.54330  0.55637  0.99744  Biso   1.000  C
  C29      1.0000 0.58640  0.53038  0.99828  Biso   1.000  C
  C30      1.0000 0.58644  0.48055  0.99794  Biso   1.000  C
  C31      1.0000 0.54337  0.45449  0.99837  Biso   1.000  C
  C32      1.0000 0.49929  0.47989  0.99810  Biso   1.000  C
  C33      1.0000 0.41210  0.53026  0.99713  Biso   1.000  C
  C34      1.0000 0.41214  0.48042  0.99722  Biso   1.000  C
  C35      1.0000 0.45524  0.45443  0.99823  Biso   1.000  C
  C36      1.0000 0.45554  0.40367  0.99843  Biso   1.000  C
  C37      1.0000 0.49936  0.37931  0.99792  Biso   1.000  C
  C38      1.0000 0.54313  0.40372  0.99817  Biso   1.000  C
  C39      1.0000 0.62072  0.54824  0.99926  Biso   1.000  C
  C40      1.0000 0.62080  0.46273  0.99733  Biso   1.000  C
  C41      1.0000 0.37775  0.54811  0.99747  Biso   1.000  C
  C42      1.0000 0.37782  0.46253  0.99632  Biso   1.000  C
  C43      1.0000 0.49910  0.67034  0.99765  Biso   1.000  C
  C44      1.0000 0.49939  0.34046  0.99808  Biso   1.000  C
  C45      1.0000 0.00139  0.40355  0.45466  Biso   1.000  C
  C46      1.0000 0.00150  0.37925  0.49850  Biso   1.000  C
  C47      1.0000 0.00106  0.40370  0.54227  Biso   1.000  C
  C48      1.0000 0.00104  0.45447  0.54244  Biso   1.000  C
  C49      1.0000 0.00045  0.47983  0.49834  Biso   1.000  C
  C50      1.0000 0.00099  0.45433  0.45431  Biso   1.000  C
  C51      1.0000 0.00288  0.48029  0.41123  Biso   1.000  C
  C52      1.0000 0.00274  0.53013  0.41115  Biso   1.000  C
  C53      1.0000 0.00085  0.55621  0.45416  Biso   1.000  C
  C54      1.0000 0.00051  0.53085  0.49827  Biso   1.000  C
  C55      1.0000 0.00341  0.48055  0.58543  Biso   1.000  C
  C56      1.0000 0.00367  0.53039  0.58535  Biso   1.000  C
  C57      1.0000 0.00142  0.55636  0.54229  Biso   1.000  C
  C58      1.0000 0.00186  0.60713  0.54195  Biso   1.000  C
  C59      1.0000 0.00181  0.63143  0.49809  Biso   1.000  C
  C60      1.0000 0.00108  0.60697  0.45434  Biso   1.000  C
  C61      1.0000 0.00524  0.46238  0.37699  Biso   1.000  C
  C62      1.0000 0.00498  0.54796  0.37686  Biso   1.000  C
  C63      1.0000 0.00597  0.46272  0.61970  Biso   1.000  C
  C64      1.0000 0.00641  0.54829  0.61957  Biso   1.000  C
  C65      1.0000 0.00138  0.34040  0.49855  Biso   1.000  C
  C66      1.0000 0.00179  0.67028  0.49802  Biso   1.000  C
  C67      1.0000 0.87784  0.00611  0.93630  Biso   1.000  C
  C68      1.0000 0.12063  0.00397  0.93517  Biso   1.000  C
  C69      1.0000 0.99768  0.06780  0.87695  Biso   1.000  C
  C70      1.0000 0.00104  0.94269  0.87706  Biso   1.000  C
  C71      1.0000 0.00074  0.88383  0.93542  Biso   1.000  C
  C72      1.0000 0.99713  0.12670  0.93524  Biso   1.000  C
  C73      1.0000 0.06187  0.00346  0.87663  Biso   1.000  C
  C74      1.0000 0.93613  0.00754  0.87727  Biso   1.000  C
  C75      1.0000 0.99919  0.00533  0.91992  Biso   1.000  C
  C76      1.0000 0.04690  0.95770  0.95052  Biso   1.000  C
  C77      1.0000 0.95160  0.05289  0.95091  Biso   1.000  C
  C78      1.0000 0.89152  0.00758  0.89156  Biso   1.000  C
  C79      1.0000 0.10659  0.00286  0.89054  Biso   1.000  C
  C80      1.0000 0.99660  0.11261  0.89049  Biso   1.000  C
  C81      1.0000 0.00179  0.89787  0.89068  Biso   1.000  C
  C82      1.0000 0.06680  0.07311  0.93035  Biso   1.000  C
  C83      1.0000 0.04633  0.05263  0.95094  Biso   1.000  C
  C84      1.0000 0.93174  0.93756  0.93081  Biso   1.000  C
  C85      1.0000 0.95226  0.95806  0.95132  Biso   1.000  C
  C86      1.0000 0.12107  0.00707  0.06019  Biso   1.000  C
  C87      1.0000 0.87850  0.00282  0.06159  Biso   1.000  C
  C88      1.0000 0.06233  0.12681  0.99994  Biso   1.000  C
  C89      1.0000 0.06253  0.88399  0.99609  Biso   1.000  C
  C90      1.0000 0.93658  0.88382  0.00004  Biso   1.000  C
  C91      1.0000 0.93628  0.12663  0.99699  Biso   1.000  C
  C92      1.0000 0.00202  0.06807  0.11951  Biso   1.000  C
  C93      1.0000 0.99868  0.94295  0.11969  Biso   1.000  C
  C94      1.0000 0.00088  0.12689  0.06115  Biso   1.000  C
  C95      1.0000 0.99787  0.88401  0.06142  Biso   1.000  C
  C96      1.0000 0.12062  0.06795  0.99928  Biso   1.000  C
  C97      1.0000 0.87816  0.06762  0.99729  Biso   1.000  C
  C98      1.0000 0.87833  0.94265  0.00036  Biso   1.000  C
  C99      1.0000 0.12075  0.94296  0.99634  Biso   1.000  C
  C100     1.0000 0.06313  0.00721  0.11931  Biso   1.000  C
  C101     1.0000 0.93728  0.00451  0.12011  Biso   1.000  C
  C102     1.0000 0.07771  0.00543  0.99793  Biso   1.000  C
  C103     1.0000 0.92122  0.00513  0.99868  Biso   1.000  C
  C104     1.0000 0.99933  0.08392  0.99828  Biso   1.000  C
  C105     1.0000 0.99952  0.92675  0.99833  Biso   1.000  C
  C106     1.0000 0.99991  0.00545  0.07670  Biso   1.000  C
  C107     1.0000 0.95221  0.95763  0.04623  Biso   1.000  C
  C108     1.0000 0.04724  0.05312  0.04565  Biso   1.000  C
  C109     1.0000 0.10783  0.00792  0.10510  Biso   1.000  C
  C110     1.0000 0.89255  0.00290  0.10626  Biso   1.000  C
  C111     1.0000 0.10709  0.11276  0.00038  Biso   1.000  C
  C112     1.0000 0.10725  0.89813  0.99537  Biso   1.000  C
  C113     1.0000 0.89183  0.89781  0.00089  Biso   1.000  C
  C114     1.0000 0.89154  0.11250  0.99650  Biso   1.000  C
  C115     1.0000 0.00232  0.11288  0.10589  Biso   1.000  C
  C116     1.0000 0.99757  0.89812  0.10616  Biso   1.000  C
  C117     1.0000 0.93203  0.07292  0.06625  Biso   1.000  C
  C118     1.0000 0.95250  0.05247  0.04565  Biso   1.000  C
  C119     1.0000 0.06749  0.93773  0.06567  Biso   1.000  C
  C120     1.0000 0.04685  0.95819  0.04525  Biso   1.000  C
  C121     1.0000 0.33111  0.00510  0.30727  Biso   1.000  C
  C122     1.0000 0.36378  0.96712  0.30451  Biso   1.000  C
  C123     1.0000 0.40395  0.96608  0.33447  Biso   1.000  C
  C124     1.0000 0.41196  0.00293  0.36779  Biso   1.000  C
  C125     1.0000 0.37911  0.04101  0.37040  Biso   1.000  C
  C126     1.0000 0.33881  0.04195  0.34047  Biso   1.000  C
  C127     1.0000 0.29082  0.00686  0.27478  Biso   1.000  C
  C128     1.0000 0.25797  0.00791  0.24654  Biso   1.000  C
  C129     1.0000 0.21991  0.00865  0.21144  Biso   1.000  C
  C130     1.0000 0.23106  0.00471  0.16276  Biso   1.000  C
  C131     1.0000 0.19467  0.00477  0.12835  Biso   1.000  C
  C132     1.0000 0.14626  0.00869  0.14200  Biso   1.000  C
  C133     1.0000 0.13532  0.01280  0.19108  Biso   1.000  C
  C134     1.0000 0.17191  0.01281  0.22551  Biso   1.000  C
  C135     1.0000 0.35851  0.93858  0.27877  Biso   1.000  C
  C136     1.0000 0.42907  0.93669  0.33142  Biso   1.000  C
  C137     1.0000 0.38504  0.07024  0.39518  Biso   1.000  C
  C138     1.0000 0.31405  0.07171  0.34279  Biso   1.000  C
  C139     1.0000 0.26798  0.00138  0.15133  Biso   1.000  C
  C140     1.0000 0.20458  0.00139  0.09102  Biso   1.000  C
  C141     1.0000 0.09853  0.01598  0.20291  Biso   1.000  C
  C142     1.0000 0.16274  0.01590  0.26307  Biso   1.000  C
  C143     1.0000 0.66921  0.00358  0.30755  Biso   1.000  C
  C144     1.0000 0.64143  0.96211  0.31281  Biso   1.000  C
  C145     1.0000 0.60134  0.96211  0.34295  Biso   1.000  C
  C146     1.0000 0.58870  0.00348  0.36859  Biso   1.000  C
  C147     1.0000 0.61687  0.04488  0.36369  Biso   1.000  C
  C148     1.0000 0.65690  0.04491  0.33333  Biso   1.000  C
  C149     1.0000 0.70930  0.00389  0.27464  Biso   1.000  C
  C150     1.0000 0.74227  0.00366  0.24646  Biso   1.000  C
  C151     1.0000 0.78112  0.00295  0.21210  Biso   1.000  C
  C152     1.0000 0.78675  0.96373  0.18122  Biso   1.000  C
  C153     1.0000 0.82327  0.96361  0.14679  Biso   1.000  C
  C154     1.0000 0.85512  0.00233  0.14344  Biso   1.000  C
  C155     1.0000 0.84990  0.04126  0.17481  Biso   1.000  C
  C156     1.0000 0.81284  0.04175  0.20870  Biso   1.000  C
  C157     1.0000 0.65038  0.92993  0.29309  Biso   1.000  C
  C158     1.0000 0.57984  0.92998  0.34599  Biso   1.000  C
  C159     1.0000 0.60730  0.07731  0.38267  Biso   1.000  C
  C160     1.0000 0.67784  0.07734  0.32945  Biso   1.000  C
  C161     1.0000 0.76270  0.93339  0.18353  Biso   1.000  C
  C162     1.0000 0.82692  0.93320  0.12298  Biso   1.000  C
  C163     1.0000 0.87374  0.07176  0.17222  Biso   1.000  C
  C164     1.0000 0.80868  0.07253  0.23193  Biso   1.000  C
  C165     1.0000 0.66832  0.00737  0.69093  Biso   1.000  C
  C166     1.0000 0.64111  0.96545  0.68645  Biso   1.000  C
  C167     1.0000 0.60096  0.96445  0.65647  Biso   1.000  C
  C168     1.0000 0.58775  0.00527  0.63029  Biso   1.000  C
  C169     1.0000 0.61533  0.04713  0.63444  Biso   1.000  C
  C170     1.0000 0.65542  0.04817  0.66463  Biso   1.000  C
  C171     1.0000 0.70845  0.00869  0.72362  Biso   1.000  C
  C172     1.0000 0.74142  0.00905  0.75171  Biso   1.000  C
  C173     1.0000 0.78012  0.00859  0.78609  Biso   1.000  C
  C174     1.0000 0.78680  0.96856  0.81561  Biso   1.000  C
  C175     1.0000 0.82323  0.96834  0.85003  Biso   1.000  C
  C176     1.0000 0.85386  0.00786  0.85477  Biso   1.000  C
  C177     1.0000 0.84763  0.04770  0.82478  Biso   1.000  C
  C178     1.0000 0.81064  0.04821  0.79083  Biso   1.000  C
  C179     1.0000 0.65059  0.93369  0.70661  Biso   1.000  C
  C180     1.0000 0.57992  0.93197  0.65392  Biso   1.000  C
  C181     1.0000 0.60529  0.07911  0.61495  Biso   1.000  C
  C182     1.0000 0.67595  0.08091  0.66795  Biso   1.000  C
  C183     1.0000 0.76368  0.93760  0.81220  Biso   1.000  C
  C184     1.0000 0.82783  0.93720  0.87272  Biso   1.000  C
  C185     1.0000 0.87070  0.07867  0.82837  Biso   1.000  C
  C186     1.0000 0.80564  0.07957  0.76855  Biso   1.000  C
  C187     1.0000 0.33055  0.00027  0.69023  Biso   1.000  C
  C188     1.0000 0.35139  0.95722  0.67488  Biso   1.000  C
  C189     1.0000 0.39158  0.95785  0.64479  Biso   1.000  C
  C190     1.0000 0.41127  0.00155  0.62963  Biso   1.000  C
  C191     1.0000 0.39003  0.04457  0.64457  Biso   1.000  C
  C192     1.0000 0.34988  0.04393  0.67467  Biso   1.000  C
  C193     1.0000 0.29040  0.99981  0.72306  Biso   1.000  C
  C194     1.0000 0.25729  0.99990  0.75106  Biso   1.000  C
  C195     1.0000 0.21820  0.00060  0.78513  Biso   1.000  C
  C196     1.0000 0.19528  0.95795  0.79858  Biso   1.000  C
  C197     1.0000 0.15823  0.95870  0.83249  Biso   1.000  C
  C198     1.0000 0.14398  0.00208  0.85345  Biso   1.000  C
  C199     1.0000 0.16680  0.04471  0.83987  Biso   1.000  C
  C200     1.0000 0.20360  0.04399  0.80577  Biso   1.000  C
  C201     1.0000 0.33698  0.92320  0.68670  Biso   1.000  C
  C202     1.0000 0.40779  0.92435  0.63388  Biso   1.000  C
  C203     1.0000 0.40505  0.07858  0.63352  Biso   1.000  C
  C204     1.0000 0.33433  0.07749  0.68634  Biso   1.000  C
  C205     1.0000 0.20630  0.92410  0.78317  Biso   1.000  C
  C206     1.0000 0.14116  0.92545  0.84289  Biso   1.000  C
  C207     1.0000 0.15622  0.07846  0.85580  Biso   1.000  C
  C208     1.0000 0.22092  0.07723  0.79578  Biso   1.000  C
  C209     1.0000 0.32999  0.31447  0.00106  Biso   1.000  C
  C210     1.0000 0.33886  0.34634  0.03881  Biso   1.000  C
  C211     1.0000 0.37933  0.37600  0.03778  Biso   1.000  C
  C212     1.0000 0.41110  0.37436  0.99876  Biso   1.000  C
  C213     1.0000 0.40196  0.34233  0.96108  Biso   1.000  C
  C214     1.0000 0.36163  0.31267  0.96219  Biso   1.000  C
  C215     1.0000 0.28956  0.28230  0.00263  Biso   1.000  C
  C216     1.0000 0.25667  0.25419  0.00315  Biso   1.000  C
  C217     1.0000 0.21869  0.21912  0.00288  Biso   1.000  C
  C218     1.0000 0.17147  0.23212  0.01379  Biso   1.000  C
  C219     1.0000 0.13493  0.19768  0.01289  Biso   1.000  C
  C220     1.0000 0.14528  0.14971  0.00130  Biso   1.000  C
  C221     1.0000 0.19289  0.13712  0.99050  Biso   1.000  C
  C222     1.0000 0.22918  0.17156  0.99119  Biso   1.000  C
  C223     1.0000 0.31488  0.34783  0.06926  Biso   1.000  C
  C224     1.0000 0.38620  0.39985  0.06757  Biso   1.000  C
  C225     1.0000 0.42631  0.34011  0.93098  Biso   1.000  C
  C226     1.0000 0.35542  0.28793  0.93297  Biso   1.000  C
  C227     1.0000 0.16288  0.26881  0.02297  Biso   1.000  C
  C228     1.0000 0.09874  0.20850  0.02164  Biso   1.000  C
  C229     1.0000 0.20214  0.10066  0.98107  Biso   1.000  C
  C230     1.0000 0.26550  0.16105  0.98248  Biso   1.000  C
  C231     1.0000 0.32983  0.69618  0.99432  Biso   1.000  C
  C232     1.0000 0.36078  0.69695  0.03378  Biso   1.000  C
  C233     1.0000 0.40111  0.66729  0.03482  Biso   1.000  C
  C234     1.0000 0.41091  0.63626  0.99649  Biso   1.000  C
  C235     1.0000 0.37979  0.63554  0.95693  Biso   1.000  C
  C236     1.0000 0.33935  0.66525  0.95595  Biso   1.000  C
  C237     1.0000 0.28949  0.72847  0.99282  Biso   1.000  C
  C238     1.0000 0.25666  0.75666  0.99239  Biso   1.000  C
  C239     1.0000 0.21871  0.79177  0.99282  Biso   1.000  C
  C240     1.0000 0.22842  0.83838  0.00842  Biso   1.000  C
  C241     1.0000 0.19217  0.87287  0.00908  Biso   1.000  C
  C242     1.0000 0.14539  0.86121  0.99442  Biso   1.000  C
  C243     1.0000 0.13576  0.81420  0.97900  Biso   1.000  C
  C244     1.0000 0.17228  0.77975  0.97804  Biso   1.000  C
  C245     1.0000 0.35405  0.72093  0.06352  Biso   1.000  C
  C246     1.0000 0.42495  0.66875  0.06537  Biso   1.000  C
  C247     1.0000 0.38718  0.61243  0.92669  Biso   1.000  C
  C248     1.0000 0.31590  0.66454  0.92506  Biso   1.000  C
  C249     1.0000 0.26409  0.84809  0.02019  Biso   1.000  C
  C250     1.0000 0.20069  0.90857  0.02162  Biso   1.000  C
  C251     1.0000 0.10020  0.80423  0.96719  Biso   1.000  C
  C252     1.0000 0.16432  0.74383  0.96577  Biso   1.000  C
  C253     1.0000 0.66866  0.69619  0.99881  Biso   1.000  C
  C254     1.0000 0.63633  0.69733  0.03713  Biso   1.000  C
  C255     1.0000 0.59594  0.66775  0.03696  Biso   1.000  C
  C256     1.0000 0.58740  0.63647  0.99852  Biso   1.000  C
  C257     1.0000 0.61981  0.63554  0.96001  Biso   1.000  C
  C258     1.0000 0.66035  0.66511  0.96027  Biso   1.000  C
  C259     1.0000 0.70917  0.72830  0.99853  Biso   1.000  C
  C260     1.0000 0.74212  0.75635  0.99885  Biso   1.000  C
  C261     1.0000 0.78015  0.79136  0.99964  Biso   1.000  C
  C262     1.0000 0.76875  0.84011  0.00092  Biso   1.000  C
  C263     1.0000 0.80504  0.87453  0.00173  Biso   1.000  C
  C264     1.0000 0.85358  0.86082  0.00124  Biso   1.000  C
  C265     1.0000 0.86478  0.81164  0.00017  Biso   1.000  C
  C266     1.0000 0.82827  0.77718  0.99937  Biso   1.000  C
  C267     1.0000 0.64207  0.72150  0.06692  Biso   1.000  C
  C268     1.0000 0.57107  0.66944  0.06667  Biso   1.000  C
  C269     1.0000 0.61341  0.61228  0.92964  Biso   1.000  C
  C270     1.0000 0.68485  0.66416  0.93022  Biso   1.000  C
  C271     1.0000 0.73168  0.85158  0.00121  Biso   1.000  C
  C272     1.0000 0.79494  0.91196  0.00253  Biso   1.000  C
  C273     1.0000 0.90169  0.79977  0.99971  Biso   1.000  C
  C274     1.0000 0.83758  0.73954  0.99845  Biso   1.000  C
  C275     1.0000 0.66877  0.31462  0.99762  Biso   1.000  C
  C276     1.0000 0.63681  0.31375  0.95900  Biso   1.000  C
  C277     1.0000 0.59645  0.34338  0.95896  Biso   1.000  C
  C278     1.0000 0.58760  0.37447  0.99749  Biso   1.000  C
  C279     1.0000 0.61969  0.37518  0.03627  Biso   1.000  C
  C280     1.0000 0.66019  0.34555  0.03622  Biso   1.000  C
  C281     1.0000 0.70918  0.28237  0.99814  Biso   1.000  C
  C282     1.0000 0.74203  0.25421  0.99802  Biso   1.000  C
  C283     1.0000 0.77998  0.21911  0.99746  Biso   1.000  C
  C284     1.0000 0.76850  0.17036  0.99652  Biso   1.000  C
  C285     1.0000 0.80475  0.13586  0.99588  Biso   1.000  C
  C286     1.0000 0.85331  0.14952  0.99618  Biso   1.000  C
  C287     1.0000 0.86457  0.19868  0.99692  Biso   1.000  C
  C288     1.0000 0.82813  0.23321  0.99756  Biso   1.000  C
  C289     1.0000 0.64278  0.28971  0.92914  Biso   1.000  C
  C290     1.0000 0.57184  0.34186  0.92903  Biso   1.000  C
  C291     1.0000 0.61304  0.39830  0.06670  Biso   1.000  C
  C292     1.0000 0.68442  0.34631  0.06650  Biso   1.000  C
  C293     1.0000 0.73142  0.15895  0.99634  Biso   1.000  C
  C294     1.0000 0.79461  0.09845  0.99531  Biso   1.000  C
  C295     1.0000 0.90149  0.21052  0.99721  Biso   1.000  C
  C296     1.0000 0.83750  0.27084  0.99821  Biso   1.000  C
  C297     1.0000 0.00230  0.31416  0.32917  Biso   1.000  C
  C298     1.0000 0.96418  0.34586  0.33708  Biso   1.000  C
  C299     1.0000 0.96406  0.37559  0.37751  Biso   1.000  C
  C300     1.0000 0.00228  0.37419  0.41024  Biso   1.000  C
  C301     1.0000 0.04035  0.34235  0.40205  Biso   1.000  C
  C302     1.0000 0.04039  0.31263  0.36175  Biso   1.000  C
  C303     1.0000 0.00186  0.28195  0.28873  Biso   1.000  C
  C304     1.0000 0.00208  0.25392  0.25577  Biso   1.000  C
  C305     1.0000 0.00288  0.21911  0.21754  Biso   1.000  C
  C306     1.0000 0.98908  0.23173  0.17099  Biso   1.000  C
  C307     1.0000 0.98950  0.19743  0.13434  Biso   1.000  C
  C308     1.0000 0.00342  0.14993  0.14392  Biso   1.000  C
  C309     1.0000 0.01749  0.13775  0.19076  Biso   1.000  C
  C310     1.0000 0.01732  0.17210  0.22718  Biso   1.000  C
  C311     1.0000 0.93433  0.34717  0.31235  Biso   1.000  C
  C312     1.0000 0.93398  0.39930  0.38360  Biso   1.000  C
  C313     1.0000 0.06988  0.34033  0.42712  Biso   1.000  C
  C314     1.0000 0.06990  0.28804  0.35628  Biso   1.000  C
  C315     1.0000 0.97771  0.26796  0.16308  Biso   1.000  C
  C316     1.0000 0.97815  0.20787  0.09876  Biso   1.000  C
  C317     1.0000 0.02879  0.10165  0.19930  Biso   1.000  C
  C318     1.0000 0.02829  0.16190  0.26297  Biso   1.000  C
  C319     1.0000 0.99831  0.31465  0.66796  Biso   1.000  C
  C320     1.0000 0.96119  0.34739  0.65962  Biso   1.000  C
  C321     1.0000 0.96233  0.37703  0.61915  Biso   1.000  C
  C322     1.0000 0.00083  0.37450  0.58681  Biso   1.000  C
  C323     1.0000 0.03794  0.34166  0.59547  Biso   1.000  C
  C324     1.0000 0.03671  0.31202  0.63582  Biso   1.000  C
  C325     1.0000 0.99645  0.28241  0.70833  Biso   1.000  C
  C326     1.0000 0.99558  0.25425  0.74117  Biso   1.000  C
  C327     1.0000 0.99540  0.21911  0.77908  Biso   1.000  C
  C328     1.0000 0.98159  0.23150  0.82571  Biso   1.000  C
  C329     1.0000 0.98200  0.19699  0.86220  Biso   1.000  C
  C330     1.0000 0.99594  0.14956  0.85235  Biso   1.000  C
  C331     1.0000 0.00959  0.13754  0.80534  Biso   1.000  C
  C332     1.0000 0.00944  0.17206  0.76913  Biso   1.000  C
  C333     1.0000 0.93111  0.34955  0.68401  Biso   1.000  C
  C334     1.0000 0.93297  0.40152  0.61269  Biso   1.000  C
  C335     1.0000 0.06766  0.33877  0.57073  Biso   1.000  C
  C336     1.0000 0.06546  0.28663  0.64163  Biso   1.000  C
  C337     1.0000 0.97053  0.26777  0.83387  Biso   1.000  C
  C338     1.0000 0.97102  0.20730  0.89793  Biso   1.000  C
  C339     1.0000 0.02095  0.10151  0.79659  Biso   1.000  C
  C340     1.0000 0.02043  0.16204  0.73329  Biso   1.000  C
  C341     1.0000 0.00281  0.69655  0.66744  Biso   1.000  C
  C342     1.0000 0.96495  0.66449  0.65979  Biso   1.000  C
  C343     1.0000 0.96483  0.63477  0.61936  Biso   1.000  C
  C344     1.0000 0.00281  0.63651  0.58637  Biso   1.000  C
  C345     1.0000 0.04064  0.66871  0.59431  Biso   1.000  C
  C346     1.0000 0.04066  0.69844  0.63460  Biso   1.000  C
  C347     1.0000 0.00231  0.72878  0.70787  Biso   1.000  C
  C348     1.0000 0.00243  0.75681  0.74084  Biso   1.000  C
  C349     1.0000 0.00306  0.79161  0.77908  Biso   1.000  C
  C350     1.0000 0.98833  0.77917  0.82541  Biso   1.000  C
  C351     1.0000 0.98851  0.81348  0.86205  Biso   1.000  C
  C352     1.0000 0.00307  0.86082  0.85267  Biso   1.000  C
  C353     1.0000 0.01809  0.87282  0.80609  Biso   1.000  C
  C354     1.0000 0.01819  0.83846  0.76969  Biso   1.000  C
  C355     1.0000 0.93527  0.66291  0.68472  Biso   1.000  C
  C356     1.0000 0.93492  0.61079  0.61347  Biso   1.000  C
  C357     1.0000 0.06998  0.67100  0.56905  Biso   1.000  C
  C358     1.0000 0.06997  0.72331  0.63987  Biso   1.000  C
  C359     1.0000 0.97641  0.74307  0.83313  Biso   1.000  C
  C360     1.0000 0.97644  0.80320  0.89744  Biso   1.000  C
  C361     1.0000 0.02997  0.90879  0.79778  Biso   1.000  C
  C362     1.0000 0.02990  0.84851  0.73410  Biso   1.000  C
  C363     1.0000 0.99850  0.69602  0.32866  Biso   1.000  C
  C364     1.0000 0.96094  0.66389  0.33739  Biso   1.000  C
  C365     1.0000 0.96201  0.63422  0.37784  Biso   1.000  C
  C366     1.0000 0.00086  0.63616  0.40980  Biso   1.000  C
  C367     1.0000 0.03842  0.66837  0.40076  Biso   1.000  C
  C368     1.0000 0.03728  0.69801  0.36041  Biso   1.000  C
  C369     1.0000 0.99677  0.72830  0.28832  Biso   1.000  C
  C370     1.0000 0.99605  0.75649  0.25549  Biso   1.000  C
  C371     1.0000 0.99607  0.79163  0.21758  Biso   1.000  C
  C372     1.0000 0.98207  0.77933  0.17098  Biso   1.000  C
  C373     1.0000 0.98264  0.81382  0.13449  Biso   1.000  C
  C374     1.0000 0.99692  0.86116  0.14430  Biso   1.000  C
  C375     1.0000 0.01077  0.87310  0.19126  Biso   1.000  C
  C376     1.0000 0.01047  0.83858  0.22749  Biso   1.000  C
  C377     1.0000 0.93058  0.66223  0.31331  Biso   1.000  C
  C378     1.0000 0.93234  0.61020  0.38461  Biso   1.000  C
  C379     1.0000 0.06843  0.67077  0.42520  Biso   1.000  C
  C380     1.0000 0.06638  0.72292  0.35429  Biso   1.000  C
  C381     1.0000 0.97071  0.74314  0.16286  Biso   1.000  C
  C382     1.0000 0.97146  0.80359  0.09880  Biso   1.000  C
  C383     1.0000 0.02238  0.90906  0.19998  Biso   1.000  C
  C384     1.0000 0.02159  0.84853  0.26330  Biso   1.000  C
  O1       1.0000 0.10741  0.89512  0.50127  Biso   1.000  O
  O2       1.0000 0.15123  0.87079  0.50296  Biso   1.000  O
  O3       1.0000 0.19486  0.89541  0.50370  Biso   1.000  O
  O4       1.0000 0.19499  0.94613  0.50321  Biso   1.000  O
  O5       1.0000 0.15090  0.97146  0.50150  Biso   1.000  O
  O6       1.0000 0.10694  0.94588  0.50054  Biso   1.000  O
  O7       1.0000 0.06374  0.97174  0.49999  Biso   1.000  O
  O8       1.0000 0.06357  0.02165  0.50017  Biso   1.000  O
  O9       1.0000 0.10660  0.04779  0.50076  Biso   1.000  O
  O10      1.0000 0.15076  0.02249  0.50138  Biso   1.000  O
  O11      1.0000 0.23799  0.97214  0.50500  Biso   1.000  O
  O12      1.0000 0.23788  0.02204  0.50510  Biso   1.000  O
  O13      1.0000 0.19477  0.04804  0.50273  Biso   1.000  O
  O14      1.0000 0.19434  0.09888  0.50306  Biso   1.000  O
  O15      1.0000 0.15036  0.12309  0.50325  Biso   1.000  O
  O16      1.0000 0.10667  0.09853  0.50196  Biso   1.000  O
  O17      1.0000 0.02951  0.95358  0.49994  Biso   1.000  O
  O18      1.0000 0.02923  0.03959  0.50027  Biso   1.000  O
  O19      1.0000 0.27223  0.95406  0.50686  Biso   1.000  O
  O20      1.0000 0.27209  0.03997  0.50772  Biso   1.000  O
  O21      1.0000 0.15140  0.83195  0.50341  Biso   1.000  O
  O22      1.0000 0.15009  0.16193  0.50370  Biso   1.000  O
  O23      1.0000 0.10778  0.49854  0.89896  Biso   1.000  O
  O24      1.0000 0.15160  0.49851  0.87462  Biso   1.000  O
  O25      1.0000 0.19535  0.49939  0.89906  Biso   1.000  O
  O26      1.0000 0.19558  0.49941  0.94981  Biso   1.000  O
  O27      1.0000 0.15150  0.49889  0.97521  Biso   1.000  O
  O28      1.0000 0.10745  0.49874  0.94974  Biso   1.000  O
  O29      1.0000 0.06435  0.49790  0.97573  Biso   1.000  O
  O30      1.0000 0.06431  0.49824  0.02556  Biso   1.000  O
  O31      1.0000 0.10738  0.49781  0.05162  Biso   1.000  O
  O32      1.0000 0.15146  0.49808  0.02622  Biso   1.000  O
  O33      1.0000 0.23865  0.49905  0.97585  Biso   1.000  O
  O34      1.0000 0.23861  0.49896  0.02569  Biso   1.000  O
  O35      1.0000 0.19551  0.49795  0.05168  Biso   1.000  O
  O36      1.0000 0.19521  0.49775  0.10244  Biso   1.000  O
  O37      1.0000 0.15139  0.49826  0.12680  Biso   1.000  O
  O38      1.0000 0.10762  0.49801  0.10239  Biso   1.000  O
  O39      1.0000 0.03003  0.49692  0.95787  Biso   1.000  O
  O40      1.0000 0.02995  0.49885  0.04338  Biso   1.000  O
  O41      1.0000 0.27300  0.49871  0.95800  Biso   1.000  O
  O42      1.0000 0.27293  0.49986  0.04358  Biso   1.000  O
  O43      1.0000 0.15165  0.49853  0.83577  Biso   1.000  O
  O44      1.0000 0.15136  0.49810  0.16565  Biso   1.000  O
  O45      1.0000 0.64936  0.04152  0.10256  Biso   1.000  O
  O46      1.0000 0.64925  0.99768  0.12686  Biso   1.000  O
  O47      1.0000 0.64969  0.95391  0.10241  Biso   1.000  O
  O48      1.0000 0.64971  0.95374  0.05164  Biso   1.000  O
  O49      1.0000 0.65030  0.99784  0.02628  Biso   1.000  O
  O50      1.0000 0.64976  0.04187  0.05178  Biso   1.000  O
  O51      1.0000 0.64787  0.08495  0.02582  Biso   1.000  O
  O52      1.0000 0.64801  0.08503  0.97598  Biso   1.000  O
  O53      1.0000 0.64990  0.04202  0.94990  Biso   1.000  O
  O54      1.0000 0.65024  0.99791  0.97526  Biso   1.000  O
  O55      1.0000 0.64734  0.91075  0.02556  Biso   1.000  O
  O56      1.0000 0.64708  0.91083  0.97572  Biso   1.000  O
  O57      1.0000 0.64933  0.95389  0.94975  Biso   1.000  O
  O58      1.0000 0.64889  0.95423  0.89898  Biso   1.000  O
  O59      1.0000 0.64894  0.99809  0.87468  Biso   1.000  O
  O60      1.0000 0.64967  0.04184  0.89914  Biso   1.000  O
  O61      1.0000 0.64551  0.11919  0.04373  Biso   1.000  O
  O62      1.0000 0.64577  0.11932  0.95815  Biso   1.000  O
  O63      1.0000 0.64478  0.87648  0.04339  Biso   1.000  O
  O64      1.0000 0.64434  0.87661  0.95782  Biso   1.000  O
  O65      1.0000 0.64937  0.99763  0.16571  Biso   1.000  O
  O66      1.0000 0.64896  0.99816  0.83583  Biso   1.000  O
  O67      1.0000 0.77291  0.55988  0.50000  Biso   1.000  O
  O68      1.0000 0.53012  0.56101  0.50214  Biso   1.000  O
  O69      1.0000 0.65307  0.61923  0.43831  Biso   1.000  O
  O70      1.0000 0.64971  0.61912  0.56342  Biso   1.000  O
  O71      1.0000 0.65001  0.56076  0.62228  Biso   1.000  O
  O72      1.0000 0.65362  0.56094  0.37941  Biso   1.000  O
  O73      1.0000 0.58888  0.61955  0.50265  Biso   1.000  O
  O74      1.0000 0.71462  0.61891  0.49857  Biso   1.000  O
  O75      1.0000 0.65156  0.57626  0.50078  Biso   1.000  O
  O76      1.0000 0.60385  0.54566  0.54841  Biso   1.000  O
  O77      1.0000 0.69915  0.54527  0.45322  Biso   1.000  O
  O78      1.0000 0.75923  0.60462  0.49853  Biso   1.000  O
  O79      1.0000 0.54416  0.60564  0.50325  Biso   1.000  O
  O80      1.0000 0.65415  0.60569  0.39350  Biso   1.000  O
  O81      1.0000 0.64896  0.60550  0.60824  Biso   1.000  O
  O82      1.0000 0.58395  0.56583  0.43300  Biso   1.000  O
  O83      1.0000 0.60442  0.54524  0.45348  Biso   1.000  O
  O84      1.0000 0.71901  0.56537  0.56855  Biso   1.000  O
  O85      1.0000 0.69849  0.54486  0.54805  Biso   1.000  O
  O86      1.0000 0.52968  0.43599  0.49904  Biso   1.000  O
  O87      1.0000 0.77225  0.43459  0.50329  Biso   1.000  O
  O88      1.0000 0.58842  0.49624  0.37930  Biso   1.000  O
  O89      1.0000 0.58822  0.50009  0.62212  Biso   1.000  O
  O90      1.0000 0.71417  0.49614  0.62229  Biso   1.000  O
  O91      1.0000 0.71447  0.49919  0.37948  Biso   1.000  O
  O92      1.0000 0.64873  0.37667  0.43804  Biso   1.000  O
  O93      1.0000 0.65207  0.37649  0.56316  Biso   1.000  O
  O94      1.0000 0.64987  0.43503  0.37922  Biso   1.000  O
  O95      1.0000 0.65288  0.43476  0.62210  Biso   1.000  O
  O96      1.0000 0.53013  0.49690  0.43816  Biso   1.000  O
  O97      1.0000 0.77259  0.49889  0.43849  Biso   1.000  O
  O98      1.0000 0.77242  0.49582  0.56346  Biso   1.000  O
  O99      1.0000 0.53000  0.49984  0.56315  Biso   1.000  O
  O100     1.0000 0.58762  0.37687  0.49890  Biso   1.000  O
  O101     1.0000 0.71347  0.37607  0.50160  Biso   1.000  O
  O102     1.0000 0.57304  0.49825  0.50068  Biso   1.000  O
  O103     1.0000 0.72953  0.49750  0.50098  Biso   1.000  O
  O104     1.0000 0.65142  0.49790  0.42219  Biso   1.000  O
  O105     1.0000 0.65123  0.49785  0.57936  Biso   1.000  O
  O106     1.0000 0.65084  0.41948  0.50066  Biso   1.000  O
  O107     1.0000 0.69854  0.44995  0.54848  Biso   1.000  O
  O108     1.0000 0.60351  0.45053  0.45299  Biso   1.000  O
  O109     1.0000 0.54292  0.39108  0.49819  Biso   1.000  O
  O110     1.0000 0.75820  0.38992  0.50321  Biso   1.000  O
  O111     1.0000 0.54366  0.49580  0.39335  Biso   1.000  O
  O112     1.0000 0.54350  0.50081  0.60798  Biso   1.000  O
  O113     1.0000 0.75892  0.49529  0.60830  Biso   1.000  O
  O114     1.0000 0.75921  0.49968  0.39361  Biso   1.000  O
  O115     1.0000 0.64843  0.39029  0.39323  Biso   1.000  O
  O116     1.0000 0.65318  0.39002  0.60799  Biso   1.000  O
  O117     1.0000 0.71872  0.42993  0.43319  Biso   1.000  O
  O118     1.0000 0.69825  0.45053  0.45364  Biso   1.000  O
  O119     1.0000 0.58326  0.43051  0.56838  Biso   1.000  O
  O120     1.0000 0.60390  0.45093  0.54792  Biso   1.000  O
  O121     1.0000 0.31964  0.18891  0.50101  Biso   1.000  O
  O122     1.0000 0.28697  0.19167  0.53899  Biso   1.000  O
  O123     1.0000 0.24680  0.16171  0.54003  Biso   1.000  O
  O124     1.0000 0.23879  0.12839  0.50318  Biso   1.000  O
  O125     1.0000 0.27164  0.12578  0.46510  Biso   1.000  O
  O126     1.0000 0.31194  0.15571  0.46416  Biso   1.000  O
  O127     1.0000 0.35993  0.22140  0.49925  Biso   1.000  O
  O128     1.0000 0.39278  0.24964  0.49820  Biso   1.000  O
  O129     1.0000 0.43084  0.28474  0.49746  Biso   1.000  O
  O130     1.0000 0.41969  0.33342  0.50140  Biso   1.000  O
  O131     1.0000 0.45608  0.36783  0.50134  Biso   1.000  O
  O132     1.0000 0.50449  0.35418  0.49742  Biso   1.000  O
  O133     1.0000 0.51543  0.30510  0.49331  Biso   1.000  O
  O134     1.0000 0.47884  0.27067  0.49330  Biso   1.000  O
  O135     1.0000 0.29224  0.21741  0.56753  Biso   1.000  O
  O136     1.0000 0.22168  0.16476  0.56942  Biso   1.000  O
  O137     1.0000 0.26571  0.10100  0.43587  Biso   1.000  O
  O138     1.0000 0.33670  0.15339  0.43440  Biso   1.000  O
  O139     1.0000 0.38277  0.34485  0.50473  Biso   1.000  O
  O140     1.0000 0.44617  0.40516  0.50472  Biso   1.000  O
  O141     1.0000 0.55222  0.29327  0.49013  Biso   1.000  O
  O142     1.0000 0.48801  0.23311  0.49021  Biso   1.000  O
  O143     1.0000 0.98154  0.18863  0.50253  Biso   1.000  O
  O144     1.0000 0.00932  0.18337  0.54400  Biso   1.000  O
  O145     1.0000 0.04941  0.15323  0.54400  Biso   1.000  O
  O146     1.0000 0.06205  0.12759  0.50263  Biso   1.000  O
  O147     1.0000 0.03388  0.13249  0.46123  Biso   1.000  O
  O148     1.0000 0.99385  0.16285  0.46120  Biso   1.000  O
  O149     1.0000 0.94145  0.22154  0.50222  Biso   1.000  O
  O150     1.0000 0.90848  0.24972  0.50245  Biso   1.000  O
  O151     1.0000 0.86963  0.28408  0.50316  Biso   1.000  O
  O152     1.0000 0.86400  0.31496  0.54238  Biso   1.000  O
  O153     1.0000 0.82748  0.34939  0.54250  Biso   1.000  O
  O154     1.0000 0.79563  0.35274  0.50378  Biso   1.000  O
  O155     1.0000 0.80085  0.32137  0.46485  Biso   1.000  O
  O156     1.0000 0.83791  0.28748  0.46436  Biso   1.000  O
  O157     1.0000 0.00037  0.20309  0.57618  Biso   1.000  O
  O158     1.0000 0.07091  0.15019  0.57613  Biso   1.000  O
  O159     1.0000 0.04345  0.11351  0.42880  Biso   1.000  O
  O160     1.0000 0.97291  0.16673  0.42877  Biso   1.000  O
  O161     1.0000 0.88805  0.31265  0.57272  Biso   1.000  O
  O162     1.0000 0.82383  0.37320  0.57291  Biso   1.000  O
  O163     1.0000 0.77701  0.32396  0.43435  Biso   1.000  O
  O164     1.0000 0.84207  0.26425  0.43358  Biso   1.000  O
  O165     1.0000 0.98243  0.80525  0.49874  Biso   1.000  O
  O166     1.0000 0.00964  0.80973  0.54066  Biso   1.000  O
  O167     1.0000 0.04979  0.83971  0.54166  Biso   1.000  O
  O168     1.0000 0.06300  0.86589  0.50084  Biso   1.000  O
  O169     1.0000 0.03542  0.86174  0.45898  Biso   1.000  O
  O170     1.0000 0.99533  0.83155  0.45794  Biso   1.000  O
  O171     1.0000 0.94230  0.77256  0.49742  Biso   1.000  O
  O172     1.0000 0.90933  0.74447  0.49706  Biso   1.000  O
  O173     1.0000 0.87063  0.71009  0.49752  Biso   1.000  O
  O174     1.0000 0.86395  0.68057  0.53755  Biso   1.000  O
  O175     1.0000 0.82752  0.64615  0.53777  Biso   1.000  O
  O176     1.0000 0.79689  0.64141  0.49825  Biso   1.000  O
  O177     1.0000 0.80312  0.67140  0.45841  Biso   1.000  O
  O178     1.0000 0.84011  0.70535  0.45790  Biso   1.000  O
  O179     1.0000 0.00016  0.78957  0.57242  Biso   1.000  O
  O180     1.0000 0.07083  0.84226  0.57414  Biso   1.000  O
  O181     1.0000 0.04546  0.88123  0.42700  Biso   1.000  O
  O182     1.0000 0.97480  0.82823  0.42520  Biso   1.000  O
  O183     1.0000 0.88707  0.68398  0.56851  Biso   1.000  O
  O184     1.0000 0.82292  0.62346  0.56891  Biso   1.000  O
  O185     1.0000 0.78005  0.66781  0.42744  Biso   1.000  O
  O186     1.0000 0.84511  0.72763  0.42654  Biso   1.000  O
  O187     1.0000 0.32020  0.80595  0.50584  Biso   1.000  O
  O188     1.0000 0.29936  0.82130  0.54889  Biso   1.000  O
  O189     1.0000 0.25917  0.85139  0.54826  Biso   1.000  O
  O190     1.0000 0.23948  0.86655  0.50456  Biso   1.000  O
  O191     1.0000 0.26072  0.85161  0.46154  Biso   1.000  O
  O192     1.0000 0.30087  0.82151  0.46218  Biso   1.000  O
  O193     1.0000 0.36035  0.77312  0.50630  Biso   1.000  O
  O194     1.0000 0.39346  0.74512  0.50621  Biso   1.000  O
  O195     1.0000 0.43255  0.71105  0.50551  Biso   1.000  O
  O196     1.0000 0.45547  0.69760  0.54816  Biso   1.000  O
  O197     1.0000 0.49252  0.66369  0.54741  Biso   1.000  O
  O198     1.0000 0.50677  0.64273  0.50403  Biso   1.000  O
  O199     1.0000 0.48395  0.65631  0.46140  Biso   1.000  O
  O200     1.0000 0.44715  0.69041  0.46212  Biso   1.000  O
  O201     1.0000 0.31377  0.80948  0.58291  Biso   1.000  O
  O202     1.0000 0.24296  0.86230  0.58176  Biso   1.000  O
  O203     1.0000 0.24570  0.86266  0.42753  Biso   1.000  O
  O204     1.0000 0.31642  0.80984  0.42862  Biso   1.000  O
  O205     1.0000 0.44445  0.71301  0.58201  Biso   1.000  O
  O206     1.0000 0.50959  0.65329  0.58066  Biso   1.000  O
  O207     1.0000 0.49453  0.64038  0.42765  Biso   1.000  O
  O208     1.0000 0.42983  0.70040  0.42888  Biso   1.000  O
  O209     1.0000 0.32076  0.49512  0.19164  Biso   1.000  O
  O210     1.0000 0.31189  0.45737  0.15977  Biso   1.000  O
  O211     1.0000 0.27142  0.45840  0.13011  Biso   1.000  O
  O212     1.0000 0.23965  0.49742  0.13175  Biso   1.000  O
  O213     1.0000 0.24879  0.53510  0.16378  Biso   1.000  O
  O214     1.0000 0.28912  0.53399  0.19344  Biso   1.000  O
  O215     1.0000 0.36119  0.49355  0.22381  Biso   1.000  O
  O216     1.0000 0.39408  0.49303  0.25192  Biso   1.000  O
  O217     1.0000 0.43206  0.49330  0.28699  Biso   1.000  O
  O218     1.0000 0.47928  0.48239  0.27399  Biso   1.000  O
  O219     1.0000 0.51582  0.48329  0.30843  Biso   1.000  O
  O220     1.0000 0.50547  0.49488  0.35640  Biso   1.000  O
  O221     1.0000 0.45786  0.50568  0.36899  Biso   1.000  O
  O222     1.0000 0.42157  0.50499  0.33455  Biso   1.000  O
  O223     1.0000 0.33587  0.42692  0.15828  Biso   1.000  O
  O224     1.0000 0.26455  0.42861  0.10626  Biso   1.000  O
  O225     1.0000 0.22444  0.56520  0.16600  Biso   1.000  O
  O226     1.0000 0.29533  0.56321  0.21818  Biso   1.000  O
  O227     1.0000 0.48787  0.47321  0.23730  Biso   1.000  O
  O228     1.0000 0.55201  0.47454  0.29761  Biso   1.000  O
  O229     1.0000 0.44861  0.51511  0.40545  Biso   1.000  O
  O230     1.0000 0.38525  0.51370  0.34506  Biso   1.000  O
  O231     1.0000 0.32092  0.50186  0.80993  Biso   1.000  O
  O232     1.0000 0.28997  0.46240  0.80916  Biso   1.000  O
  O233     1.0000 0.24964  0.46136  0.83882  Biso   1.000  O
  O234     1.0000 0.23984  0.49969  0.86985  Biso   1.000  O
  O235     1.0000 0.27096  0.53925  0.87057  Biso   1.000  O
  O236     1.0000 0.31140  0.54023  0.84086  Biso   1.000  O
  O237     1.0000 0.36126  0.50336  0.77764  Biso   1.000  O
  O238     1.0000 0.39409  0.50379  0.74945  Biso   1.000  O
  O239     1.0000 0.43204  0.50336  0.71434  Biso   1.000  O
  O240     1.0000 0.42233  0.48776  0.66773  Biso   1.000  O
  O241     1.0000 0.45858  0.48710  0.63324  Biso   1.000  O
  O242     1.0000 0.50536  0.50176  0.64490  Biso   1.000  O
  O243     1.0000 0.51499  0.51718  0.69191  Biso   1.000  O
  O244     1.0000 0.47847  0.51814  0.72636  Biso   1.000  O
  O245     1.0000 0.29670  0.43266  0.78518  Biso   1.000  O
  O246     1.0000 0.22580  0.43081  0.83736  Biso   1.000  O
  O247     1.0000 0.26357  0.56949  0.89368  Biso   1.000  O
  O248     1.0000 0.33485  0.57112  0.84157  Biso   1.000  O
  O249     1.0000 0.38666  0.47599  0.65802  Biso   1.000  O
  O250     1.0000 0.45006  0.47456  0.59754  Biso   1.000  O
  O251     1.0000 0.55055  0.52899  0.70188  Biso   1.000  O
  O252     1.0000 0.48643  0.53041  0.76228  Biso   1.000  O
  O253     1.0000 0.98209  0.49737  0.80992  Biso   1.000  O
  O254     1.0000 0.01442  0.45905  0.80878  Biso   1.000  O
  O255     1.0000 0.05481  0.45922  0.83836  Biso   1.000  O
  O256     1.0000 0.06335  0.49766  0.86964  Biso   1.000  O
  O257     1.0000 0.03094  0.53617  0.87057  Biso   1.000  O
  O258     1.0000 0.99040  0.53591  0.84100  Biso   1.000  O
  O259     1.0000 0.94158  0.49765  0.77781  Biso   1.000  O
  O260     1.0000 0.90863  0.49733  0.74976  Biso   1.000  O
  O261     1.0000 0.87060  0.49654  0.71475  Biso   1.000  O
  O262     1.0000 0.88200  0.49526  0.66600  Biso   1.000  O
  O263     1.0000 0.84571  0.49445  0.63158  Biso   1.000  O
  O264     1.0000 0.79717  0.49494  0.64529  Biso   1.000  O
  O265     1.0000 0.78597  0.49601  0.69447  Biso   1.000  O
  O266     1.0000 0.82248  0.49681  0.72893  Biso   1.000  O
  O267     1.0000 0.00868  0.42926  0.78461  Biso   1.000  O
  O268     1.0000 0.07968  0.42951  0.83667  Biso   1.000  O
  O269     1.0000 0.03734  0.56654  0.89383  Biso   1.000  O
  O270     1.0000 0.96590  0.56596  0.84195  Biso   1.000  O
  O271     1.0000 0.91907  0.49497  0.65453  Biso   1.000  O
  O272     1.0000 0.85581  0.49365  0.59415  Biso   1.000  O
  O273     1.0000 0.74906  0.49647  0.70634  Biso   1.000  O
  O274     1.0000 0.81317  0.49773  0.76657  Biso   1.000  O
  O275     1.0000 0.98198  0.49856  0.19149  Biso   1.000  O
  O276     1.0000 0.01394  0.53718  0.19236  Biso   1.000  O
  O277     1.0000 0.05430  0.53722  0.16273  Biso   1.000  O
  O278     1.0000 0.06315  0.49869  0.13164  Biso   1.000  O
  O279     1.0000 0.03106  0.45991  0.13093  Biso   1.000  O
  O280     1.0000 0.99056  0.45996  0.16056  Biso   1.000  O
  O281     1.0000 0.94157  0.49804  0.22374  Biso   1.000  O
  O282     1.0000 0.90872  0.49816  0.25190  Biso   1.000  O
  O283     1.0000 0.87077  0.49872  0.28700  Biso   1.000  O
  O284     1.0000 0.88225  0.49966  0.33575  Biso   1.000  O
  O285     1.0000 0.84600  0.50030  0.37025  Biso   1.000  O
  O286     1.0000 0.79744  0.50000  0.35659  Biso   1.000  O
  O287     1.0000 0.78618  0.49926  0.30743  Biso   1.000  O
  O288     1.0000 0.82262  0.49862  0.27290  Biso   1.000  O
  O289     1.0000 0.00797  0.56704  0.21640  Biso   1.000  O
  O290     1.0000 0.07891  0.56715  0.16425  Biso   1.000  O
  O291     1.0000 0.03771  0.42948  0.10781  Biso   1.000  O
  O292     1.0000 0.96633  0.42968  0.15980  Biso   1.000  O
  O293     1.0000 0.91933  0.49984  0.34716  Biso   1.000  O
  O294     1.0000 0.85614  0.50087  0.40766  Biso   1.000  O
  O295     1.0000 0.74926  0.49897  0.29559  Biso   1.000  O
  O296     1.0000 0.81325  0.49797  0.23527  Biso   1.000  O
  O297     1.0000 0.64845  0.16701  0.19195  Biso   1.000  O
  O298     1.0000 0.68657  0.15910  0.16025  Biso   1.000  O
  O299     1.0000 0.68669  0.11867  0.13052  Biso   1.000  O
  O300     1.0000 0.64847  0.08594  0.13192  Biso   1.000  O
  O301     1.0000 0.61040  0.09413  0.16376  Biso   1.000  O
  O302     1.0000 0.61036  0.13443  0.19348  Biso   1.000  O
  O303     1.0000 0.64889  0.20745  0.22416  Biso   1.000  O
  O304     1.0000 0.64867  0.24041  0.25219  Biso   1.000  O
  O305     1.0000 0.64787  0.27864  0.28700  Biso   1.000  O
  O306     1.0000 0.66167  0.32519  0.27438  Biso   1.000  O
  O307     1.0000 0.66125  0.36184  0.30868  Biso   1.000  O
  O308     1.0000 0.64733  0.35226  0.35618  Biso   1.000  O
  O309     1.0000 0.63326  0.30542  0.36836  Biso   1.000  O
  O310     1.0000 0.63343  0.26900  0.33401  Biso   1.000  O
  O311     1.0000 0.71642  0.18383  0.15894  Biso   1.000  O
  O312     1.0000 0.71677  0.11258  0.10681  Biso   1.000  O
  O313     1.0000 0.58087  0.06906  0.16578  Biso   1.000  O
  O314     1.0000 0.58085  0.13990  0.21807  Biso   1.000  O
  O315     1.0000 0.67304  0.33310  0.23815  Biso   1.000  O
  O316     1.0000 0.67260  0.39742  0.29824  Biso   1.000  O
  O317     1.0000 0.62196  0.29688  0.40446  Biso   1.000  O
  O318     1.0000 0.62246  0.23321  0.34421  Biso   1.000  O
  O319     1.0000 0.65244  0.82822  0.19146  Biso   1.000  O
  O320     1.0000 0.68956  0.83656  0.15872  Biso   1.000  O
  O321     1.0000 0.68842  0.87703  0.12908  Biso   1.000  O
  O322     1.0000 0.64992  0.90937  0.13161  Biso   1.000  O
  O323     1.0000 0.61281  0.90071  0.16445  Biso   1.000  O
  O324     1.0000 0.61404  0.86036  0.19409  Biso   1.000  O
  O325     1.0000 0.65430  0.78785  0.22370  Biso   1.000  O
  O326     1.0000 0.65517  0.75501  0.25186  Biso   1.000  O
  O327     1.0000 0.65535  0.71710  0.28700  Biso   1.000  O
  O328     1.0000 0.66916  0.67047  0.27461  Biso   1.000  O
  O329     1.0000 0.66875  0.63398  0.30912  Biso   1.000  O
  O330     1.0000 0.65481  0.64383  0.35655  Biso   1.000  O
  O331     1.0000 0.64116  0.69084  0.36857  Biso   1.000  O
  O332     1.0000 0.64131  0.72705  0.33405  Biso   1.000  O
  O333     1.0000 0.71964  0.81217  0.15656  Biso   1.000  O
  O334     1.0000 0.71778  0.88349  0.10459  Biso   1.000  O
  O335     1.0000 0.58309  0.92545  0.16734  Biso   1.000  O
  O336     1.0000 0.58529  0.85455  0.21948  Biso   1.000  O
  O337     1.0000 0.68022  0.66231  0.23834  Biso   1.000  O
  O338     1.0000 0.67973  0.59825  0.29881  Biso   1.000  O
  O339     1.0000 0.62980  0.69959  0.40460  Biso   1.000  O
  O340     1.0000 0.63032  0.76289  0.34407  Biso   1.000  O
  O341     1.0000 0.64794  0.82874  0.80956  Biso   1.000  O
  O342     1.0000 0.68580  0.83639  0.84162  Biso   1.000  O
  O343     1.0000 0.68592  0.87682  0.87134  Biso   1.000  O
  O344     1.0000 0.64794  0.90981  0.86960  Biso   1.000  O
  O345     1.0000 0.61011  0.90187  0.83740  Biso   1.000  O
  O346     1.0000 0.61009  0.86158  0.80767  Biso   1.000  O
  O347     1.0000 0.64844  0.78831  0.77733  Biso   1.000  O
  O348     1.0000 0.64832  0.75534  0.74930  Biso   1.000  O
  O349     1.0000 0.64769  0.71710  0.71450  Biso   1.000  O
  O350     1.0000 0.66242  0.67077  0.72694  Biso   1.000  O
  O351     1.0000 0.66224  0.63413  0.69263  Biso   1.000  O
  O352     1.0000 0.64768  0.64351  0.64529  Biso   1.000  O
  O353     1.0000 0.63266  0.69009  0.63329  Biso   1.000  O
  O354     1.0000 0.63256  0.72649  0.66765  Biso   1.000  O
  O355     1.0000 0.71548  0.81146  0.84320  Biso   1.000  O
  O356     1.0000 0.71583  0.88271  0.89532  Biso   1.000  O
  O357     1.0000 0.58077  0.92713  0.83511  Biso   1.000  O
  O358     1.0000 0.58078  0.85631  0.78280  Biso   1.000  O
  O359     1.0000 0.67434  0.66305  0.76304  Biso   1.000  O
  O360     1.0000 0.67431  0.59874  0.70291  Biso   1.000  O
  O361     1.0000 0.62078  0.69840  0.59732  Biso   1.000  O
  O362     1.0000 0.62085  0.76208  0.65760  Biso   1.000  O
  O363     1.0000 0.65225  0.16752  0.81009  Biso   1.000  O
  O364     1.0000 0.68981  0.15879  0.84222  Biso   1.000  O
  O365     1.0000 0.68874  0.11834  0.87189  Biso   1.000  O
  O366     1.0000 0.64989  0.08638  0.86995  Biso   1.000  O
  O367     1.0000 0.61233  0.09542  0.83774  Biso   1.000  O
  O368     1.0000 0.61347  0.13577  0.80810  Biso   1.000  O
  O369     1.0000 0.65398  0.20786  0.77781  Biso   1.000  O
  O370     1.0000 0.65470  0.24069  0.74962  Biso   1.000  O
  O371     1.0000 0.65468  0.27860  0.71448  Biso   1.000  O
  O372     1.0000 0.66868  0.32520  0.72678  Biso   1.000  O
  O373     1.0000 0.66811  0.36169  0.69229  Biso   1.000  O
  O374     1.0000 0.65383  0.35188  0.64495  Biso   1.000  O
  O375     1.0000 0.63998  0.30492  0.63301  Biso   1.000  O
  O376     1.0000 0.64028  0.26869  0.66753  Biso   1.000  O
  O377     1.0000 0.72017  0.18287  0.84388  Biso   1.000  O
  O378     1.0000 0.71841  0.11157  0.89591  Biso   1.000  O
  O379     1.0000 0.58232  0.07098  0.83534  Biso   1.000  O
  O380     1.0000 0.58437  0.14189  0.78319  Biso   1.000  O
  O381     1.0000 0.68004  0.33332  0.76297  Biso   1.000  O
  O382     1.0000 0.67929  0.39738  0.70252  Biso   1.000  O
  O383     1.0000 0.62837  0.29620  0.59705  Biso   1.000  O
