data_image0
_cell_length_a       28.9202
_cell_length_b       28.9202
_cell_length_c       28.9202
_cell_angle_alpha    90
_cell_angle_beta     90
_cell_angle_gamma    90

_symmetry_space_group_name_H-M    "P 1"
_symmetry_int_tables_number       1

loop_
  _symmetry_equiv_pos_as_xyz
  'x, y, z'

loop_
  _atom_site_label
  _atom_site_occupancy
  _atom_site_fract_x
  _atom_site_fract_y
  _atom_site_fract_z
  _atom_site_thermal_displace_type
  _atom_site_B_iso_or_equiv
  _atom_site_type_symbol
  C1       1.0000 0.52371  0.02081  0.35499  Biso   1.000  C
  C2       1.0000 0.47630  0.02030  0.35504  Biso   1.000  C
  C3       1.0000 0.46248  0.00627  0.40167  Biso   1.000  C
  N1       1.0000 0.50033  0.99848  0.42804  Biso   1.000  N
  C4       1.0000 0.53794  0.00698  0.40157  Biso   1.000  C
  C5       1.0000 0.41647  0.99820  0.41579  Biso   1.000  C
  C6       1.0000 0.40365  0.99055  0.46240  Biso   1.000  C
  C7       1.0000 0.36098  0.97382  0.47651  Biso   1.000  C
  C8       1.0000 0.36102  0.97429  0.52406  Biso   1.000  C
  C9       1.0000 0.40374  0.99123  0.53776  Biso   1.000  C
  N2       1.0000 0.42952  0.00111  0.49996  Biso   1.000  N
  C10      1.0000 0.41673  0.99959  0.58418  Biso   1.000  C
  C11      1.0000 0.46291  0.00701  0.59811  Biso   1.000  C
  C12      1.0000 0.47713  0.02086  0.64468  Biso   1.000  C
  C13      1.0000 0.52454  0.02038  0.64463  Biso   1.000  C
  C14      1.0000 0.53837  0.00633  0.59800  Biso   1.000  C
  N3       1.0000 0.50053  0.99852  0.57164  Biso   1.000  N
  C15      1.0000 0.58439  0.99828  0.58389  Biso   1.000  C
  C16      1.0000 0.59721  0.99061  0.53729  Biso   1.000  C
  C17      1.0000 0.63989  0.97390  0.52318  Biso   1.000  C
  C18      1.0000 0.63985  0.97435  0.47563  Biso   1.000  C
  C19      1.0000 0.59712  0.99126  0.46193  Biso   1.000  C
  N4       1.0000 0.57134  0.00114  0.49972  Biso   1.000  N
  C20      1.0000 0.58413  0.99959  0.41550  Biso   1.000  C
  H1       1.0000 0.54552  0.03001  0.32601  Biso   1.000  H
  H2       1.0000 0.45423  0.02905  0.32613  Biso   1.000  H
  H3       1.0000 0.54009  0.01889  0.49988  Biso   1.000  H
  H4       1.0000 0.33258  0.96273  0.45482  Biso   1.000  H
  H5       1.0000 0.33268  0.96362  0.54604  Biso   1.000  H
  H6       1.0000 0.45533  0.03006  0.67366  Biso   1.000  H
  H7       1.0000 0.54661  0.02915  0.67354  Biso   1.000  H
  H8       1.0000 0.66820  0.96368  0.45366  Biso   1.000  H
  H9       1.0000 0.46076  0.01887  0.49979  Biso   1.000  H
  H10      1.0000 0.66830  0.96283  0.54488  Biso   1.000  H
  C21      1.0000 0.35559  0.51981  0.02422  Biso   1.000  C
  C22      1.0000 0.35564  0.47240  0.02374  Biso   1.000  C
  C23      1.0000 0.40227  0.45858  0.00969  Biso   1.000  C
  N5       1.0000 0.42864  0.49642  0.00188  Biso   1.000  N
  C24      1.0000 0.40216  0.53404  0.01037  Biso   1.000  C
  C25      1.0000 0.41638  0.41256  0.00164  Biso   1.000  C
  C26      1.0000 0.46299  0.39974  0.99398  Biso   1.000  C
  C27      1.0000 0.47710  0.35706  0.97726  Biso   1.000  C
  C28      1.0000 0.52465  0.35710  0.97772  Biso   1.000  C
  C29      1.0000 0.53835  0.39983  0.99463  Biso   1.000  C
  N6       1.0000 0.50055  0.42561  0.00451  Biso   1.000  N
  C30      1.0000 0.58478  0.41282  0.00296  Biso   1.000  C
  C31      1.0000 0.59871  0.45901  0.01036  Biso   1.000  C
  C32      1.0000 0.64528  0.47324  0.02419  Biso   1.000  C
  C33      1.0000 0.64523  0.52065  0.02368  Biso   1.000  C
  C34      1.0000 0.59860  0.53447  0.00964  Biso   1.000  C
  N7       1.0000 0.57223  0.49662  0.00185  Biso   1.000  N
  C35      1.0000 0.58448  0.58048  0.00157  Biso   1.000  C
  C36      1.0000 0.53788  0.59330  0.99392  Biso   1.000  C
  C37      1.0000 0.52376  0.63597  0.97719  Biso   1.000  C
  C38      1.0000 0.47621  0.63593  0.97766  Biso   1.000  C
  C39      1.0000 0.46252  0.59321  0.99460  Biso   1.000  C
  N8       1.0000 0.50031  0.56743  0.00447  Biso   1.000  N
  C40      1.0000 0.41609  0.58022  0.00295  Biso   1.000  C
  H11      1.0000 0.32662  0.54162  0.03342  Biso   1.000  H
  H12      1.0000 0.32673  0.45034  0.03251  Biso   1.000  H
  H13      1.0000 0.50048  0.53619  0.02224  Biso   1.000  H
  H14      1.0000 0.45540  0.32865  0.96619  Biso   1.000  H
  H15      1.0000 0.54662  0.32875  0.96705  Biso   1.000  H
  H16      1.0000 0.67426  0.45144  0.03338  Biso   1.000  H
  H17      1.0000 0.67414  0.54272  0.03242  Biso   1.000  H
  H18      1.0000 0.45423  0.66427  0.96698  Biso   1.000  H
  H19      1.0000 0.50040  0.45686  0.02226  Biso   1.000  H
  H20      1.0000 0.54546  0.66437  0.96609  Biso   1.000  H
  C41      1.0000 0.97645  0.64131  0.47572  Biso   1.000  C
  C42      1.0000 0.97596  0.64136  0.52313  Biso   1.000  C
  C43      1.0000 0.98981  0.59479  0.53736  Biso   1.000  C
  N9       1.0000 0.99830  0.56831  0.49974  Biso   1.000  N
  C44      1.0000 0.99049  0.59468  0.46190  Biso   1.000  C
  C45      1.0000 0.99723  0.58086  0.58354  Biso   1.000  C
  C46      1.0000 0.00559  0.53444  0.59653  Biso   1.000  C
  C47      1.0000 0.02253  0.52074  0.63925  Biso   1.000  C
  C48      1.0000 0.02300  0.47320  0.63929  Biso   1.000  C
  C49      1.0000 0.00627  0.45908  0.59662  Biso   1.000  C
  N10      1.0000 0.99571  0.49664  0.57075  Biso   1.000  N
  C50      1.0000 0.99861  0.41247  0.58380  Biso   1.000  C
  C51      1.0000 0.99055  0.39835  0.53779  Biso   1.000  C
  C52      1.0000 0.97652  0.35172  0.52398  Biso   1.000  C
  C53      1.0000 0.97601  0.35167  0.47657  Biso   1.000  C
  C54      1.0000 0.98984  0.39824  0.46234  Biso   1.000  C
  N11      1.0000 0.99833  0.42472  0.49995  Biso   1.000  N
  C55      1.0000 0.99723  0.41217  0.41615  Biso   1.000  C
  C56      1.0000 0.00556  0.45860  0.40315  Biso   1.000  C
  C57      1.0000 0.02248  0.47230  0.36043  Biso   1.000  C
  C58      1.0000 0.02293  0.51985  0.36039  Biso   1.000  C
  C59      1.0000 0.00621  0.53396  0.40306  Biso   1.000  C
  N12      1.0000 0.99568  0.49639  0.42894  Biso   1.000  N
  C60      1.0000 0.99855  0.58056  0.41588  Biso   1.000  C
  H21      1.0000 0.96768  0.67022  0.45365  Biso   1.000  H
  H22      1.0000 0.96676  0.67034  0.54494  Biso   1.000  H
  H23      1.0000 0.97793  0.49655  0.46018  Biso   1.000  H
  H24      1.0000 0.03321  0.54272  0.66759  Biso   1.000  H
  H25      1.0000 0.03409  0.45150  0.66770  Biso   1.000  H
  H26      1.0000 0.96777  0.32280  0.54605  Biso   1.000  H
  H27      1.0000 0.96681  0.32269  0.45477  Biso   1.000  H
  H28      1.0000 0.03401  0.54155  0.33198  Biso   1.000  H
  H29      1.0000 0.97795  0.49647  0.53952  Biso   1.000  H
  H30      1.0000 0.03316  0.45032  0.33208  Biso   1.000  H
  O1       1.0000 0.93785  0.99502  0.88082  Biso   1.000  O
  O2       1.0000 0.93778  0.99809  0.11881  Biso   1.000  O
  O3       1.0000 0.88141  0.93394  0.99821  Biso   1.000  O
  O4       1.0000 0.88146  0.05917  0.00142  Biso   1.000  O
  O5       1.0000 0.93782  0.11552  0.00145  Biso   1.000  O
  O6       1.0000 0.93773  0.87755  0.99821  Biso   1.000  O
  O7       1.0000 0.88143  0.99812  0.06245  Biso   1.000  O
  O8       1.0000 0.88146  0.99500  0.93714  Biso   1.000  O
  Zr1      1.0000 0.91906  0.99654  0.99981  Biso   1.000  Zr
  O9       1.0000 0.95848  0.03847  0.04180  Biso   1.000  O
  O10      1.0000 0.95847  0.95458  0.95784  Biso   1.000  O
  C61      1.0000 0.89500  0.99428  0.89430  Biso   1.000  C
  C62      1.0000 0.89494  0.99887  0.10530  Biso   1.000  C
  C63      1.0000 0.89489  0.89109  0.99746  Biso   1.000  C
  C64      1.0000 0.89498  0.10201  0.00220  Biso   1.000  C
  H31      1.0000 0.93888  0.93502  0.06131  Biso   1.000  H
  O11      1.0000 0.95863  0.95475  0.04158  Biso   1.000  O
  H32      1.0000 0.93897  0.05807  0.93834  Biso   1.000  H
  O12      1.0000 0.95869  0.03832  0.95808  Biso   1.000  O
  O13      1.0000 0.06301  0.99488  0.11886  Biso   1.000  O
  O14      1.0000 0.06309  0.99814  0.88088  Biso   1.000  O
  O15      1.0000 0.00193  0.87750  0.06242  Biso   1.000  O
  O16      1.0000 0.99886  0.11548  0.06250  Biso   1.000  O
  O17      1.0000 0.00206  0.11554  0.93727  Biso   1.000  O
  O18      1.0000 0.99881  0.87755  0.93718  Biso   1.000  O
  O19      1.0000 0.11940  0.93386  0.00145  Biso   1.000  O
  O20      1.0000 0.11945  0.05910  0.99834  Biso   1.000  O
  O21      1.0000 0.06304  0.87751  0.00140  Biso   1.000  O
  O22      1.0000 0.06313  0.11548  0.99833  Biso   1.000  O
  O23      1.0000 0.00195  0.93381  0.11881  Biso   1.000  O
  O24      1.0000 0.99886  0.93392  0.88083  Biso   1.000  O
  O25      1.0000 0.00206  0.05922  0.88088  Biso   1.000  O
  O26      1.0000 0.99882  0.05912  0.11885  Biso   1.000  O
  O27      1.0000 0.11940  0.99488  0.06254  Biso   1.000  O
  O28      1.0000 0.11944  0.99808  0.93724  Biso   1.000  O
  Zr2      1.0000 0.00041  0.99648  0.08121  Biso   1.000  Zr
  Zr3      1.0000 0.00046  0.99655  0.91847  Biso   1.000  Zr
  Zr4      1.0000 0.00040  0.91515  0.99981  Biso   1.000  Zr
  Zr5      1.0000 0.00046  0.07789  0.99987  Biso   1.000  Zr
  Zr6      1.0000 0.08180  0.99649  0.99987  Biso   1.000  Zr
  O29      1.0000 0.04243  0.03848  0.95791  Biso   1.000  O
  O30      1.0000 0.04237  0.95452  0.04181  Biso   1.000  O
  C65      1.0000 0.10586  0.99413  0.10538  Biso   1.000  C
  C66      1.0000 0.10593  0.99887  0.89439  Biso   1.000  C
  C67      1.0000 0.00267  0.89097  0.10527  Biso   1.000  C
  C68      1.0000 0.99808  0.10197  0.10534  Biso   1.000  C
  C69      1.0000 0.00281  0.10206  0.89441  Biso   1.000  C
  C70      1.0000 0.99808  0.89107  0.89434  Biso   1.000  C
  C71      1.0000 0.10588  0.89102  0.00219  Biso   1.000  C
  C72      1.0000 0.10597  0.10195  0.99760  Biso   1.000  C
  H33      1.0000 0.06193  0.93502  0.93834  Biso   1.000  H
  O31      1.0000 0.04220  0.95475  0.95808  Biso   1.000  O
  H34      1.0000 0.06193  0.05798  0.06139  Biso   1.000  H
  O32      1.0000 0.04220  0.03826  0.04164  Biso   1.000  O
  C73      1.0000 0.31087  0.99466  0.31113  Biso   1.000  C
  C74      1.0000 0.30974  0.02855  0.34574  Biso   1.000  C
  C75      1.0000 0.34405  0.02966  0.37983  Biso   1.000  C
  C76      1.0000 0.37989  0.99688  0.37966  Biso   1.000  C
  C77      1.0000 0.38077  0.96285  0.34499  Biso   1.000  C
  C78      1.0000 0.34646  0.96180  0.31089  Biso   1.000  C
  C79      1.0000 0.27567  0.99375  0.27582  Biso   1.000  C
  C80      1.0000 0.24622  0.99315  0.24623  Biso   1.000  C
  C81      1.0000 0.21103  0.99269  0.21089  Biso   1.000  C
  C82      1.0000 0.22349  0.99256  0.16412  Biso   1.000  C
  C83      1.0000 0.18938  0.99276  0.12980  Biso   1.000  C
  C84      1.0000 0.14215  0.99311  0.14177  Biso   1.000  C
  C85      1.0000 0.13003  0.99295  0.18896  Biso   1.000  C
  C86      1.0000 0.16422  0.99276  0.22319  Biso   1.000  C
  H35      1.0000 0.28240  0.05416  0.34630  Biso   1.000  H
  H36      1.0000 0.34284  0.05616  0.40628  Biso   1.000  H
  H37      1.0000 0.40804  0.93719  0.34442  Biso   1.000  H
  H38      1.0000 0.34771  0.93540  0.28433  Biso   1.000  H
  H39      1.0000 0.25961  0.99250  0.15416  Biso   1.000  H
  H40      1.0000 0.20008  0.99282  0.09392  Biso   1.000  H
  H41      1.0000 0.09411  0.99318  0.19954  Biso   1.000  H
  H42      1.0000 0.15413  0.99286  0.25927  Biso   1.000  H
  C87      1.0000 0.68975  0.00006  0.31084  Biso   1.000  C
  C88      1.0000 0.69022  0.03332  0.34606  Biso   1.000  C
  C89      1.0000 0.65590  0.03310  0.38016  Biso   1.000  C
  C90      1.0000 0.62072  0.99961  0.37936  Biso   1.000  C
  C91      1.0000 0.62054  0.96619  0.34410  Biso   1.000  C
  C92      1.0000 0.65485  0.96647  0.31000  Biso   1.000  C
  C93      1.0000 0.72501  0.00041  0.27558  Biso   1.000  C
  C94      1.0000 0.75450  0.00063  0.24602  Biso   1.000  C
  C95      1.0000 0.78971  0.00075  0.21071  Biso   1.000  C
  C96      1.0000 0.83651  0.00083  0.22305  Biso   1.000  C
  C97      1.0000 0.87072  0.00045  0.18885  Biso   1.000  C
  C98      1.0000 0.85863  0.99996  0.14165  Biso   1.000  C
  C99      1.0000 0.81141  0.00012  0.12965  Biso   1.000  C
  C100     1.0000 0.77728  0.00049  0.16394  Biso   1.000  C
  H43      1.0000 0.71704  0.05945  0.34710  Biso   1.000  H
  H44      1.0000 0.65658  0.05912  0.40710  Biso   1.000  H
  H45      1.0000 0.59381  0.93998  0.34307  Biso   1.000  H
  H46      1.0000 0.65416  0.94052  0.28298  Biso   1.000  H
  H47      1.0000 0.84657  0.00105  0.25914  Biso   1.000  H
  H48      1.0000 0.90663  0.00039  0.19946  Biso   1.000  H
  H49      1.0000 0.80073  0.99978  0.09376  Biso   1.000  H
  H50      1.0000 0.74117  0.00044  0.15396  Biso   1.000  H
  C101     1.0000 0.68998  0.99481  0.68855  Biso   1.000  C
  C102     1.0000 0.65441  0.96193  0.68881  Biso   1.000  C
  C103     1.0000 0.62010  0.96297  0.65471  Biso   1.000  C
  C104     1.0000 0.62097  0.99698  0.62003  Biso   1.000  C
  C105     1.0000 0.65679  0.02978  0.61984  Biso   1.000  C
  C106     1.0000 0.69111  0.02869  0.65394  Biso   1.000  C
  C107     1.0000 0.72519  0.99392  0.72387  Biso   1.000  C
  C108     1.0000 0.75465  0.99333  0.75345  Biso   1.000  C
  C109     1.0000 0.78984  0.99287  0.78879  Biso   1.000  C
  C110     1.0000 0.77737  0.99275  0.83556  Biso   1.000  C
  C111     1.0000 0.81148  0.99294  0.86988  Biso   1.000  C
  C112     1.0000 0.85871  0.99328  0.85792  Biso   1.000  C
  C113     1.0000 0.87084  0.99313  0.81072  Biso   1.000  C
  C114     1.0000 0.83664  0.99295  0.77650  Biso   1.000  C
  H51      1.0000 0.65317  0.93555  0.71537  Biso   1.000  H
  H52      1.0000 0.59284  0.93729  0.65528  Biso   1.000  H
  H53      1.0000 0.65800  0.05627  0.59339  Biso   1.000  H
  H54      1.0000 0.71844  0.05431  0.65337  Biso   1.000  H
  H55      1.0000 0.74126  0.99268  0.84552  Biso   1.000  H
  H56      1.0000 0.80078  0.99300  0.90576  Biso   1.000  H
  H57      1.0000 0.90675  0.99335  0.80014  Biso   1.000  H
  H58      1.0000 0.84673  0.99304  0.74042  Biso   1.000  H
  C115     1.0000 0.31111  0.00005  0.68884  Biso   1.000  C
  C116     1.0000 0.34602  0.96647  0.68970  Biso   1.000  C
  C117     1.0000 0.38034  0.96620  0.65559  Biso   1.000  C
  C118     1.0000 0.38014  0.99960  0.62032  Biso   1.000  C
  C119     1.0000 0.34495  0.03308  0.61950  Biso   1.000  C
  C120     1.0000 0.31063  0.03329  0.65361  Biso   1.000  C
  C121     1.0000 0.27585  0.00040  0.72411  Biso   1.000  C
  C122     1.0000 0.24637  0.00062  0.75366  Biso   1.000  C
  C123     1.0000 0.21115  0.00073  0.78897  Biso   1.000  C
  C124     1.0000 0.22359  0.00043  0.83574  Biso   1.000  C
  C125     1.0000 0.18946  0.00006  0.87004  Biso   1.000  C
  C126     1.0000 0.14224  0.99995  0.85804  Biso   1.000  C
  C127     1.0000 0.13014  0.00050  0.81084  Biso   1.000  C
  C128     1.0000 0.16436  0.00087  0.77664  Biso   1.000  C
  H59      1.0000 0.34673  0.94054  0.71672  Biso   1.000  H
  H60      1.0000 0.40708  0.94000  0.65663  Biso   1.000  H
  H61      1.0000 0.34426  0.05908  0.59256  Biso   1.000  H
  H62      1.0000 0.28380  0.05941  0.65255  Biso   1.000  H
  H63      1.0000 0.25970  0.00033  0.84572  Biso   1.000  H
  H64      1.0000 0.20014  0.99968  0.90592  Biso   1.000  H
  H65      1.0000 0.09424  0.00048  0.80023  Biso   1.000  H
  H66      1.0000 0.15429  0.00113  0.74055  Biso   1.000  H
  C129     1.0000 0.31172  0.30696  0.99816  Biso   1.000  C
  C130     1.0000 0.31147  0.34254  0.96529  Biso   1.000  C
  C131     1.0000 0.34557  0.37685  0.96633  Biso   1.000  C
  C132     1.0000 0.38025  0.37598  0.00034  Biso   1.000  C
  C133     1.0000 0.38043  0.34015  0.03314  Biso   1.000  C
  C134     1.0000 0.34634  0.30584  0.03205  Biso   1.000  C
  C135     1.0000 0.27641  0.27176  0.99727  Biso   1.000  C
  C136     1.0000 0.24682  0.24230  0.99668  Biso   1.000  C
  C137     1.0000 0.21149  0.20711  0.99621  Biso   1.000  C
  C138     1.0000 0.22378  0.16030  0.99628  Biso   1.000  C
  C139     1.0000 0.18955  0.12611  0.99646  Biso   1.000  C
  C140     1.0000 0.14236  0.13824  0.99661  Biso   1.000  C
  C141     1.0000 0.13040  0.18547  0.99627  Biso   1.000  C
  C142     1.0000 0.16472  0.21958  0.99609  Biso   1.000  C
  H67      1.0000 0.28491  0.34378  0.93890  Biso   1.000  H
  H68      1.0000 0.34499  0.40412  0.94065  Biso   1.000  H
  H69      1.0000 0.40689  0.33895  0.05962  Biso   1.000  H
  H70      1.0000 0.34691  0.27851  0.05766  Biso   1.000  H
  H71      1.0000 0.25986  0.15021  0.99638  Biso   1.000  H
  H72      1.0000 0.20014  0.09020  0.99668  Biso   1.000  H
  H73      1.0000 0.09452  0.19617  0.99633  Biso   1.000  H
  H74      1.0000 0.15476  0.25569  0.99602  Biso   1.000  H
  C143     1.0000 0.31143  0.68584  0.00339  Biso   1.000  C
  C144     1.0000 0.34666  0.68632  0.03664  Biso   1.000  C
  C145     1.0000 0.38076  0.65200  0.03643  Biso   1.000  C
  C146     1.0000 0.37996  0.61681  0.00296  Biso   1.000  C
  C147     1.0000 0.34468  0.61661  0.96955  Biso   1.000  C
  C148     1.0000 0.31058  0.65092  0.96982  Biso   1.000  C
  C149     1.0000 0.27617  0.72109  0.00373  Biso   1.000  C
  C150     1.0000 0.24661  0.75058  0.00395  Biso   1.000  C
  C151     1.0000 0.21130  0.78580  0.00406  Biso   1.000  C
  C152     1.0000 0.22363  0.83259  0.00420  Biso   1.000  C
  C153     1.0000 0.18943  0.86680  0.00382  Biso   1.000  C
  C154     1.0000 0.14224  0.85471  0.00327  Biso   1.000  C
  C155     1.0000 0.13024  0.80749  0.00338  Biso   1.000  C
  C156     1.0000 0.16453  0.77336  0.00375  Biso   1.000  C
  H75      1.0000 0.34771  0.71316  0.06275  Biso   1.000  H
  H76      1.0000 0.40771  0.65270  0.06244  Biso   1.000  H
  H77      1.0000 0.34364  0.58986  0.94336  Biso   1.000  H
  H78      1.0000 0.28355  0.65021  0.94389  Biso   1.000  H
  H79      1.0000 0.25972  0.84266  0.00445  Biso   1.000  H
  H80      1.0000 0.20004  0.90271  0.00380  Biso   1.000  H
  H81      1.0000 0.09435  0.79681  0.00300  Biso   1.000  H
  H82      1.0000 0.15455  0.73725  0.00366  Biso   1.000  H
  C157     1.0000 0.68914  0.68608  0.99802  Biso   1.000  C
  C158     1.0000 0.65454  0.68721  0.03191  Biso   1.000  C
  C159     1.0000 0.62044  0.65290  0.03303  Biso   1.000  C
  C160     1.0000 0.62062  0.61706  0.00024  Biso   1.000  C
  C161     1.0000 0.65529  0.61617  0.96622  Biso   1.000  C
  C162     1.0000 0.68939  0.65048  0.96516  Biso   1.000  C
  C163     1.0000 0.72446  0.72128  0.99710  Biso   1.000  C
  C164     1.0000 0.75404  0.75074  0.99650  Biso   1.000  C
  C165     1.0000 0.78938  0.78593  0.99602  Biso   1.000  C
  C166     1.0000 0.77709  0.83273  0.99610  Biso   1.000  C
  C167     1.0000 0.81131  0.86692  0.99629  Biso   1.000  C
  C168     1.0000 0.85851  0.85480  0.99644  Biso   1.000  C
  C169     1.0000 0.87047  0.80757  0.99608  Biso   1.000  C
  C170     1.0000 0.83615  0.77346  0.99590  Biso   1.000  C
  H83      1.0000 0.65398  0.71455  0.05751  Biso   1.000  H
  H84      1.0000 0.59400  0.65412  0.05952  Biso   1.000  H
  H85      1.0000 0.65585  0.58890  0.94055  Biso   1.000  H
  H86      1.0000 0.71594  0.64924  0.93876  Biso   1.000  H
  H87      1.0000 0.74101  0.84282  0.99620  Biso   1.000  H
  H88      1.0000 0.80073  0.90284  0.99652  Biso   1.000  H
  H89      1.0000 0.90635  0.79687  0.99615  Biso   1.000  H
  H90      1.0000 0.84611  0.73734  0.99583  Biso   1.000  H
  C171     1.0000 0.68944  0.30720  0.00342  Biso   1.000  C
  C172     1.0000 0.65422  0.30674  0.03668  Biso   1.000  C
  C173     1.0000 0.62011  0.34106  0.03647  Biso   1.000  C
  C174     1.0000 0.62091  0.37623  0.00298  Biso   1.000  C
  C175     1.0000 0.65617  0.37642  0.96956  Biso   1.000  C
  C176     1.0000 0.69028  0.34210  0.96984  Biso   1.000  C
  C177     1.0000 0.72470  0.27194  0.00377  Biso   1.000  C
  C178     1.0000 0.75426  0.24246  0.00399  Biso   1.000  C
  C179     1.0000 0.78956  0.20724  0.00410  Biso   1.000  C
  C180     1.0000 0.83633  0.21968  0.00384  Biso   1.000  C
  C181     1.0000 0.87063  0.18554  0.00346  Biso   1.000  C
  C182     1.0000 0.85862  0.13833  0.00330  Biso   1.000  C
  C183     1.0000 0.81143  0.12623  0.00379  Biso   1.000  C
  C184     1.0000 0.77723  0.16045  0.00418  Biso   1.000  C
  H91      1.0000 0.65318  0.27991  0.06281  Biso   1.000  H
  H92      1.0000 0.59318  0.34037  0.06248  Biso   1.000  H
  H93      1.0000 0.65721  0.40315  0.94335  Biso   1.000  H
  H94      1.0000 0.71729  0.34280  0.94389  Biso   1.000  H
  H95      1.0000 0.84632  0.25579  0.00379  Biso   1.000  H
  H96      1.0000 0.90651  0.19622  0.00312  Biso   1.000  H
  H97      1.0000 0.80082  0.09032  0.00373  Biso   1.000  H
  H98      1.0000 0.74114  0.15038  0.00440  Biso   1.000  H
  C185     1.0000 0.99680  0.30750  0.31053  Biso   1.000  C
  C186     1.0000 0.96354  0.34272  0.31006  Biso   1.000  C
  C187     1.0000 0.96374  0.37683  0.34438  Biso   1.000  C
  C188     1.0000 0.99722  0.37603  0.37956  Biso   1.000  C
  C189     1.0000 0.03065  0.34078  0.37975  Biso   1.000  C
  C190     1.0000 0.03038  0.30667  0.34544  Biso   1.000  C
  C191     1.0000 0.99647  0.27224  0.27527  Biso   1.000  C
  C192     1.0000 0.99626  0.24269  0.24578  Biso   1.000  C
  C193     1.0000 0.99616  0.20738  0.21057  Biso   1.000  C
  C194     1.0000 0.99609  0.21972  0.16378  Biso   1.000  C
  C195     1.0000 0.99647  0.18552  0.12956  Biso   1.000  C
  C196     1.0000 0.99698  0.13832  0.14165  Biso   1.000  C
  C197     1.0000 0.99681  0.12632  0.18887  Biso   1.000  C
  C198     1.0000 0.99643  0.16061  0.22300  Biso   1.000  C
  H99      1.0000 0.93741  0.34376  0.28323  Biso   1.000  H
  H100     1.0000 0.93772  0.40375  0.34369  Biso   1.000  H
  H101     1.0000 0.05685  0.33975  0.40649  Biso   1.000  H
  H102     1.0000 0.05633  0.27966  0.34614  Biso   1.000  H
  H103     1.0000 0.99586  0.25581  0.15371  Biso   1.000  H
  H104     1.0000 0.99654  0.19613  0.09365  Biso   1.000  H
  H105     1.0000 0.99715  0.09043  0.19955  Biso   1.000  H
  H106     1.0000 0.99648  0.15063  0.25911  Biso   1.000  H
  C199     1.0000 0.00220  0.30781  0.68940  Biso   1.000  C
  C200     1.0000 0.03505  0.30757  0.65381  Biso   1.000  C
  C201     1.0000 0.03398  0.34167  0.61950  Biso   1.000  C
  C202     1.0000 0.99995  0.37634  0.62039  Biso   1.000  C
  C203     1.0000 0.96717  0.37651  0.65623  Biso   1.000  C
  C204     1.0000 0.96830  0.34241  0.69055  Biso   1.000  C
  C205     1.0000 0.00312  0.27250  0.72461  Biso   1.000  C
  C206     1.0000 0.00374  0.24291  0.75406  Biso   1.000  C
  C207     1.0000 0.00422  0.20757  0.78925  Biso   1.000  C
  C208     1.0000 0.00435  0.16081  0.77679  Biso   1.000  C
  C209     1.0000 0.00417  0.12648  0.81090  Biso   1.000  C
  C210     1.0000 0.00382  0.13845  0.85812  Biso   1.000  C
  C211     1.0000 0.00397  0.18564  0.87025  Biso   1.000  C
  C212     1.0000 0.00415  0.21987  0.83606  Biso   1.000  C
  H107     1.0000 0.06145  0.28102  0.65256  Biso   1.000  H
  H108     1.0000 0.05964  0.34110  0.59222  Biso   1.000  H
  H109     1.0000 0.94068  0.40295  0.65745  Biso   1.000  H
  H110     1.0000 0.94270  0.34297  0.71789  Biso   1.000  H
  H111     1.0000 0.00441  0.15085  0.74067  Biso   1.000  H
  H112     1.0000 0.00411  0.09060  0.80019  Biso   1.000  H
  H113     1.0000 0.00375  0.19622  0.90617  Biso   1.000  H
  H114     1.0000 0.00405  0.25595  0.84615  Biso   1.000  H
  C213     1.0000 0.99681  0.68553  0.68915  Biso   1.000  C
  C214     1.0000 0.96356  0.65030  0.68964  Biso   1.000  C
  C215     1.0000 0.96376  0.61620  0.65532  Biso   1.000  C
  C216     1.0000 0.99723  0.61700  0.62013  Biso   1.000  C
  C217     1.0000 0.03064  0.65227  0.61992  Biso   1.000  C
  C218     1.0000 0.03038  0.68638  0.65423  Biso   1.000  C
  C219     1.0000 0.99648  0.72079  0.72441  Biso   1.000  C
  C220     1.0000 0.99627  0.75035  0.75390  Biso   1.000  C
  C221     1.0000 0.99617  0.78566  0.78911  Biso   1.000  C
  C222     1.0000 0.99604  0.77332  0.83591  Biso   1.000  C
  C223     1.0000 0.99643  0.80752  0.87012  Biso   1.000  C
  C224     1.0000 0.99698  0.85472  0.85803  Biso   1.000  C
  C225     1.0000 0.99687  0.86672  0.81081  Biso   1.000  C
  C226     1.0000 0.99649  0.83243  0.77668  Biso   1.000  C
  H115     1.0000 0.93745  0.64925  0.71648  Biso   1.000  H
  H116     1.0000 0.93775  0.58926  0.65602  Biso   1.000  H
  H117     1.0000 0.05683  0.65331  0.59317  Biso   1.000  H
  H118     1.0000 0.05631  0.71340  0.65352  Biso   1.000  H
  H119     1.0000 0.99578  0.73723  0.84597  Biso   1.000  H
  H120     1.0000 0.99645  0.79691  0.90603  Biso   1.000  H
  H121     1.0000 0.99725  0.90261  0.80013  Biso   1.000  H
  H122     1.0000 0.99657  0.84241  0.74057  Biso   1.000  H
  C227     1.0000 0.00206  0.68522  0.31028  Biso   1.000  C
  C228     1.0000 0.96817  0.65061  0.30915  Biso   1.000  C
  C229     1.0000 0.96707  0.61652  0.34347  Biso   1.000  C
  C230     1.0000 0.99986  0.61670  0.37930  Biso   1.000  C
  C231     1.0000 0.03388  0.65138  0.38018  Biso   1.000  C
  C232     1.0000 0.03492  0.68547  0.34587  Biso   1.000  C
  C233     1.0000 0.00296  0.72053  0.27508  Biso   1.000  C
  C234     1.0000 0.00356  0.75012  0.24562  Biso   1.000  C
  C235     1.0000 0.00404  0.78546  0.21043  Biso   1.000  C
  C236     1.0000 0.00397  0.77316  0.16362  Biso   1.000  C
  C237     1.0000 0.00380  0.80739  0.12943  Biso   1.000  C
  C238     1.0000 0.00366  0.85459  0.14156  Biso   1.000  C
  C239     1.0000 0.00400  0.86655  0.18879  Biso   1.000  C
  C240     1.0000 0.00417  0.83222  0.22290  Biso   1.000  C
  H123     1.0000 0.94256  0.65005  0.28182  Biso   1.000  H
  H124     1.0000 0.94058  0.59006  0.34226  Biso   1.000  H
  H125     1.0000 0.05955  0.65195  0.40745  Biso   1.000  H
  H126     1.0000 0.06132  0.71203  0.34711  Biso   1.000  H
  H127     1.0000 0.00387  0.73709  0.15353  Biso   1.000  H
  H128     1.0000 0.00358  0.79681  0.09352  Biso   1.000  H
  H129     1.0000 0.00394  0.90243  0.19949  Biso   1.000  H
  H130     1.0000 0.00423  0.84218  0.25901  Biso   1.000  H
  C241     1.0000 0.48409  0.20747  0.06916  Biso   1.000  C
  C242     1.0000 0.48460  0.20742  0.02175  Biso   1.000  C
  C243     1.0000 0.49863  0.16079  0.00793  Biso   1.000  C
  N13      1.0000 0.50642  0.13442  0.04578  Biso   1.000  N
  C244     1.0000 0.49792  0.16089  0.08339  Biso   1.000  C
  C245     1.0000 0.50670  0.14667  0.96192  Biso   1.000  C
  C246     1.0000 0.51435  0.10006  0.94910  Biso   1.000  C
  C247     1.0000 0.53108  0.08595  0.90643  Biso   1.000  C
  C248     1.0000 0.53061  0.03840  0.90647  Biso   1.000  C
  C249     1.0000 0.51367  0.02470  0.94919  Biso   1.000  C
  N14      1.0000 0.50379  0.06250  0.97497  Biso   1.000  N
  C250     1.0000 0.50531  0.97828  0.96218  Biso   1.000  C
  C251     1.0000 0.49789  0.96435  0.00836  Biso   1.000  C
  C252     1.0000 0.48404  0.91778  0.02258  Biso   1.000  C
  C253     1.0000 0.48452  0.91783  0.06999  Biso   1.000  C
  C254     1.0000 0.49857  0.96446  0.08382  Biso   1.000  C
  N15      1.0000 0.50638  0.99082  0.04598  Biso   1.000  N
  C255     1.0000 0.50662  0.97857  0.12984  Biso   1.000  C
  C256     1.0000 0.51429  0.02517  0.14266  Biso   1.000  C
  C257     1.0000 0.53100  0.03928  0.18534  Biso   1.000  C
  C258     1.0000 0.53055  0.08683  0.18530  Biso   1.000  C
  C259     1.0000 0.51364  0.10053  0.14257  Biso   1.000  C
  N16      1.0000 0.50376  0.06274  0.11679  Biso   1.000  N
  C260     1.0000 0.50531  0.14696  0.12958  Biso   1.000  C
  H131     1.0000 0.47489  0.23645  0.09097  Biso   1.000  H
  H132     1.0000 0.47585  0.23633  0.99968  Biso   1.000  H
  H133     1.0000 0.48601  0.06258  0.08554  Biso   1.000  H
  H134     1.0000 0.54217  0.10764  0.87803  Biso   1.000  H
  H135     1.0000 0.54128  0.01642  0.87813  Biso   1.000  H
  H136     1.0000 0.47484  0.88880  0.00078  Biso   1.000  H
  H137     1.0000 0.47575  0.88892  0.09206  Biso   1.000  H
  H138     1.0000 0.54122  0.10880  0.21365  Biso   1.000  H
  H139     1.0000 0.48603  0.06267  0.00621  Biso   1.000  H
  H140     1.0000 0.54207  0.01758  0.21375  Biso   1.000  H
  C261     1.0000 0.98509  0.53824  0.90104  Biso   1.000  C
  C262     1.0000 0.03250  0.53872  0.90109  Biso   1.000  C
  C263     1.0000 0.04632  0.55277  0.94772  Biso   1.000  C
  N17      1.0000 0.00848  0.56058  0.97409  Biso   1.000  N
  C264     1.0000 0.97086  0.55209  0.94761  Biso   1.000  C
  C265     1.0000 0.09234  0.56082  0.96183  Biso   1.000  C
  C266     1.0000 0.10516  0.56848  0.00844  Biso   1.000  C
  C267     1.0000 0.14784  0.58520  0.02255  Biso   1.000  C
  C268     1.0000 0.14780  0.58474  0.07010  Biso   1.000  C
  C269     1.0000 0.10507  0.56783  0.08380  Biso   1.000  C
  N18      1.0000 0.07929  0.55795  0.04600  Biso   1.000  N
  C270     1.0000 0.09208  0.55950  0.13023  Biso   1.000  C
  C271     1.0000 0.04589  0.55210  0.14416  Biso   1.000  C
  C272     1.0000 0.03166  0.53827  0.19073  Biso   1.000  C
  C273     1.0000 0.98425  0.53878  0.19068  Biso   1.000  C
  C274     1.0000 0.97043  0.55282  0.14405  Biso   1.000  C
  N19      1.0000 0.00828  0.56061  0.11768  Biso   1.000  N
  C275     1.0000 0.92442  0.56089  0.12993  Biso   1.000  C
  C276     1.0000 0.91160  0.56854  0.08333  Biso   1.000  C
  C277     1.0000 0.86893  0.58527  0.06921  Biso   1.000  C
  C278     1.0000 0.86897  0.58480  0.02166  Biso   1.000  C
  C279     1.0000 0.91169  0.56786  0.00797  Biso   1.000  C
  N20      1.0000 0.93747  0.55799  0.04576  Biso   1.000  N
  C280     1.0000 0.92468  0.55951  0.96154  Biso   1.000  C
  H141     1.0000 0.96328  0.52904  0.87207  Biso   1.000  H
  H142     1.0000 0.05456  0.52995  0.87218  Biso   1.000  H
  H143     1.0000 0.96871  0.54022  0.04593  Biso   1.000  H
  H144     1.0000 0.17625  0.59627  0.00085  Biso   1.000  H
  H145     1.0000 0.17615  0.59541  0.09207  Biso   1.000  H
  H146     1.0000 0.05346  0.52908  0.21971  Biso   1.000  H
  H147     1.0000 0.96218  0.53004  0.21959  Biso   1.000  H
  H148     1.0000 0.84063  0.59548  0.99968  Biso   1.000  H
  H149     1.0000 0.04804  0.54020  0.04585  Biso   1.000  H
  H150     1.0000 0.84053  0.59637  0.09091  Biso   1.000  H
  C281     1.0000 0.86359  0.08674  0.52190  Biso   1.000  C
  C282     1.0000 0.86354  0.03933  0.52141  Biso   1.000  C
  C283     1.0000 0.91011  0.02510  0.53526  Biso   1.000  C
  N21      1.0000 0.93659  0.06272  0.54375  Biso   1.000  N
  C284     1.0000 0.91022  0.10056  0.53594  Biso   1.000  C
  C285     1.0000 0.92404  0.97892  0.54268  Biso   1.000  C
  C286     1.0000 0.97046  0.96593  0.55104  Biso   1.000  C
  C287     1.0000 0.98416  0.92321  0.56798  Biso   1.000  C
  C288     1.0000 0.03170  0.92317  0.56845  Biso   1.000  C
  C289     1.0000 0.04582  0.96584  0.55172  Biso   1.000  C
  N22      1.0000 0.00826  0.99171  0.54116  Biso   1.000  N
  C290     1.0000 0.09243  0.97866  0.54406  Biso   1.000  C
  C291     1.0000 0.10655  0.02467  0.53600  Biso   1.000  C
  C292     1.0000 0.15318  0.03848  0.52197  Biso   1.000  C
  C293     1.0000 0.15323  0.08589  0.52146  Biso   1.000  C
  C294     1.0000 0.10666  0.10012  0.53529  Biso   1.000  C
  N23      1.0000 0.08018  0.06251  0.54378  Biso   1.000  N
  C295     1.0000 0.09273  0.14631  0.54268  Biso   1.000  C
  C296     1.0000 0.04630  0.15931  0.55101  Biso   1.000  C
  C297     1.0000 0.03260  0.20203  0.56793  Biso   1.000  C
  C298     1.0000 0.98505  0.20207  0.56838  Biso   1.000  C
  C299     1.0000 0.97094  0.15940  0.55166  Biso   1.000  C
  N24      1.0000 0.00851  0.13352  0.54113  Biso   1.000  N
  C300     1.0000 0.92434  0.14658  0.54400  Biso   1.000  C
  H151     1.0000 0.83468  0.10881  0.51313  Biso   1.000  H
  H152     1.0000 0.83456  0.01752  0.51221  Biso   1.000  H
  H153     1.0000 0.00835  0.10228  0.52338  Biso   1.000  H
  H154     1.0000 0.96218  0.89487  0.57866  Biso   1.000  H
  H155     1.0000 0.05340  0.89476  0.57954  Biso   1.000  H
  H156     1.0000 0.18210  0.01641  0.51322  Biso   1.000  H
  H157     1.0000 0.18221  0.10769  0.51226  Biso   1.000  H
  H158     1.0000 0.96335  0.23048  0.57946  Biso   1.000  H
  H159     1.0000 0.00843  0.02294  0.52340  Biso   1.000  H
  H160     1.0000 0.05458  0.23038  0.57861  Biso   1.000  H
  O33      1.0000 0.50988  0.68164  0.48330  Biso   1.000  O
  O34      1.0000 0.50681  0.44365  0.48323  Biso   1.000  O
  O35      1.0000 0.57096  0.56425  0.42686  Biso   1.000  O
  O36      1.0000 0.44573  0.56104  0.42691  Biso   1.000  O
  O37      1.0000 0.38938  0.56101  0.48327  Biso   1.000  O
  O38      1.0000 0.62735  0.56425  0.48318  Biso   1.000  O
  O39      1.0000 0.50678  0.50001  0.42688  Biso   1.000  O
  O40      1.0000 0.50990  0.62532  0.42691  Biso   1.000  O
  Zr7      1.0000 0.50836  0.56265  0.46451  Biso   1.000  Zr
  O41      1.0000 0.46643  0.52066  0.50393  Biso   1.000  O
  O42      1.0000 0.55032  0.60462  0.50392  Biso   1.000  O
  C301     1.0000 0.51062  0.66816  0.44045  Biso   1.000  C
  C302     1.0000 0.50603  0.45716  0.44039  Biso   1.000  C
  C303     1.0000 0.61381  0.56500  0.44034  Biso   1.000  C
  C304     1.0000 0.40289  0.56026  0.44043  Biso   1.000  C
  H161     1.0000 0.56988  0.50115  0.48433  Biso   1.000  H
  O43      1.0000 0.55015  0.52088  0.50408  Biso   1.000  O
  H162     1.0000 0.44683  0.62412  0.48442  Biso   1.000  H
  O44      1.0000 0.46658  0.60438  0.50414  Biso   1.000  O
  O45      1.0000 0.51002  0.44360  0.60846  Biso   1.000  O
  O46      1.0000 0.50676  0.68158  0.60854  Biso   1.000  O
  O47      1.0000 0.62740  0.50004  0.54738  Biso   1.000  O
  O48      1.0000 0.38942  0.49996  0.54431  Biso   1.000  O
  O49      1.0000 0.38936  0.62519  0.54751  Biso   1.000  O
  O50      1.0000 0.62735  0.62528  0.54426  Biso   1.000  O
  O51      1.0000 0.57104  0.56101  0.66485  Biso   1.000  O
  O52      1.0000 0.44580  0.56412  0.66490  Biso   1.000  O
  O53      1.0000 0.62739  0.56106  0.60849  Biso   1.000  O
  O54      1.0000 0.38942  0.56413  0.60858  Biso   1.000  O
  O55      1.0000 0.57109  0.44365  0.54740  Biso   1.000  O
  O56      1.0000 0.57098  0.68163  0.54431  Biso   1.000  O
  O57      1.0000 0.44568  0.68158  0.54751  Biso   1.000  O
  O58      1.0000 0.44578  0.44361  0.54427  Biso   1.000  O
  O59      1.0000 0.51002  0.49992  0.66485  Biso   1.000  O
  O60      1.0000 0.50682  0.62522  0.66489  Biso   1.000  O
  Zr8      1.0000 0.50842  0.48125  0.54586  Biso   1.000  Zr
  Zr9      1.0000 0.50835  0.64399  0.54591  Biso   1.000  Zr
  Zr10     1.0000 0.58975  0.56265  0.54585  Biso   1.000  Zr
  Zr11     1.0000 0.42701  0.56259  0.54591  Biso   1.000  Zr
  Zr12     1.0000 0.50841  0.56259  0.62725  Biso   1.000  Zr
  O61      1.0000 0.46642  0.60455  0.58788  Biso   1.000  O
  O62      1.0000 0.55038  0.52065  0.58782  Biso   1.000  O
  C305     1.0000 0.51077  0.45708  0.65131  Biso   1.000  C
  C306     1.0000 0.50603  0.66807  0.65138  Biso   1.000  C
  C307     1.0000 0.61393  0.45719  0.54812  Biso   1.000  C
  C308     1.0000 0.40293  0.45712  0.54353  Biso   1.000  C
  C309     1.0000 0.40284  0.66805  0.54826  Biso   1.000  C
  C310     1.0000 0.61383  0.66812  0.54353  Biso   1.000  C
  C311     1.0000 0.61388  0.56027  0.65133  Biso   1.000  C
  C312     1.0000 0.40295  0.56486  0.65142  Biso   1.000  C
  H163     1.0000 0.56988  0.62412  0.60738  Biso   1.000  H
  O63      1.0000 0.55015  0.60438  0.58765  Biso   1.000  O
  H164     1.0000 0.44692  0.50107  0.60738  Biso   1.000  H
  O64      1.0000 0.46664  0.52082  0.58765  Biso   1.000  O
  C313     1.0000 0.51024  0.25133  0.85632  Biso   1.000  C
  C314     1.0000 0.47635  0.21672  0.85519  Biso   1.000  C
  C315     1.0000 0.47524  0.18263  0.88950  Biso   1.000  C
  C316     1.0000 0.50802  0.18280  0.92534  Biso   1.000  C
  C317     1.0000 0.54205  0.21747  0.92622  Biso   1.000  C
  C318     1.0000 0.54310  0.25157  0.89191  Biso   1.000  C
  C319     1.0000 0.51115  0.28664  0.82112  Biso   1.000  C
  C320     1.0000 0.51175  0.31623  0.79167  Biso   1.000  C
  C321     1.0000 0.51221  0.35157  0.75648  Biso   1.000  C
  C322     1.0000 0.51234  0.39834  0.76894  Biso   1.000  C
  C323     1.0000 0.51214  0.43266  0.73483  Biso   1.000  C
  C324     1.0000 0.51179  0.42069  0.68760  Biso   1.000  C
  C325     1.0000 0.51195  0.37350  0.67548  Biso   1.000  C
  C326     1.0000 0.51214  0.33927  0.70967  Biso   1.000  C
  H165     1.0000 0.45074  0.21616  0.82785  Biso   1.000  H
  H166     1.0000 0.44874  0.15618  0.88829  Biso   1.000  H
  H167     1.0000 0.56771  0.21804  0.95349  Biso   1.000  H
  H168     1.0000 0.56950  0.27813  0.89316  Biso   1.000  H
  H169     1.0000 0.51240  0.40830  0.80506  Biso   1.000  H
  H170     1.0000 0.51208  0.46854  0.74553  Biso   1.000  H
  H171     1.0000 0.51172  0.36292  0.63956  Biso   1.000  H
  H172     1.0000 0.51204  0.30319  0.69958  Biso   1.000  H
  C327     1.0000 0.50484  0.25162  0.23520  Biso   1.000  C
  C328     1.0000 0.47158  0.21640  0.23567  Biso   1.000  C
  C329     1.0000 0.47180  0.18230  0.20135  Biso   1.000  C
  C330     1.0000 0.50529  0.18310  0.16617  Biso   1.000  C
  C331     1.0000 0.53871  0.21836  0.16599  Biso   1.000  C
  C332     1.0000 0.53843  0.25246  0.20030  Biso   1.000  C
  C333     1.0000 0.50449  0.28688  0.27046  Biso   1.000  C
  C334     1.0000 0.50427  0.31644  0.29995  Biso   1.000  C
  C335     1.0000 0.50415  0.35175  0.33516  Biso   1.000  C
  C336     1.0000 0.50407  0.33941  0.38196  Biso   1.000  C
  C337     1.0000 0.50445  0.37361  0.41617  Biso   1.000  C
  C338     1.0000 0.50494  0.42081  0.40408  Biso   1.000  C
  C339     1.0000 0.50478  0.43281  0.35686  Biso   1.000  C
  C340     1.0000 0.50441  0.39852  0.32273  Biso   1.000  C
  H173     1.0000 0.44545  0.21536  0.26249  Biso   1.000  H
  H174     1.0000 0.44578  0.15536  0.20203  Biso   1.000  H
  H175     1.0000 0.56492  0.21939  0.13926  Biso   1.000  H
  H176     1.0000 0.56438  0.27948  0.19961  Biso   1.000  H
  H177     1.0000 0.50385  0.30332  0.39202  Biso   1.000  H
  H178     1.0000 0.50451  0.36300  0.45208  Biso   1.000  H
  H179     1.0000 0.50512  0.46870  0.34618  Biso   1.000  H
  H180     1.0000 0.50446  0.40850  0.28662  Biso   1.000  H
  C341     1.0000 0.51009  0.87391  0.23543  Biso   1.000  C
  C342     1.0000 0.54297  0.87365  0.19986  Biso   1.000  C
  C343     1.0000 0.54193  0.90775  0.16555  Biso   1.000  C
  C344     1.0000 0.50792  0.94243  0.16642  Biso   1.000  C
  C345     1.0000 0.47512  0.94262  0.20224  Biso   1.000  C
  C346     1.0000 0.47621  0.90852  0.23656  Biso   1.000  C
  C347     1.0000 0.51098  0.83859  0.27064  Biso   1.000  C
  C348     1.0000 0.51157  0.80901  0.30010  Biso   1.000  C
  C349     1.0000 0.51203  0.77367  0.33529  Biso   1.000  C
  C350     1.0000 0.51215  0.72690  0.32282  Biso   1.000  C
  C351     1.0000 0.51196  0.69258  0.35693  Biso   1.000  C
  C352     1.0000 0.51162  0.70454  0.40416  Biso   1.000  C
  C353     1.0000 0.51177  0.75174  0.41629  Biso   1.000  C
  C354     1.0000 0.51195  0.78596  0.38209  Biso   1.000  C
  H181     1.0000 0.56935  0.84709  0.19862  Biso   1.000  H
  H182     1.0000 0.56761  0.90718  0.13829  Biso   1.000  H
  H183     1.0000 0.44863  0.96907  0.20345  Biso   1.000  H
  H184     1.0000 0.45059  0.90909  0.26389  Biso   1.000  H
  H185     1.0000 0.51222  0.71694  0.28671  Biso   1.000  H
  H186     1.0000 0.51190  0.65670  0.34623  Biso   1.000  H
  H187     1.0000 0.51155  0.76232  0.45220  Biso   1.000  H
  H188     1.0000 0.51186  0.82204  0.39218  Biso   1.000  H
  C355     1.0000 0.50485  0.87362  0.85656  Biso   1.000  C
  C356     1.0000 0.53843  0.87276  0.89147  Biso   1.000  C
  C357     1.0000 0.53870  0.90687  0.92579  Biso   1.000  C
  C358     1.0000 0.50530  0.94214  0.92559  Biso   1.000  C
  C359     1.0000 0.47182  0.94296  0.89040  Biso   1.000  C
  C360     1.0000 0.47161  0.90885  0.85608  Biso   1.000  C
  C361     1.0000 0.50450  0.83835  0.82130  Biso   1.000  C
  C362     1.0000 0.50428  0.80880  0.79182  Biso   1.000  C
  C363     1.0000 0.50417  0.77349  0.75660  Biso   1.000  C
  C364     1.0000 0.50447  0.72672  0.76904  Biso   1.000  C
  C365     1.0000 0.50484  0.69242  0.73491  Biso   1.000  C
  C366     1.0000 0.50495  0.70442  0.68769  Biso   1.000  C
  C367     1.0000 0.50440  0.75162  0.67559  Biso   1.000  C
  C368     1.0000 0.50403  0.78582  0.70981  Biso   1.000  C
  H189     1.0000 0.56436  0.84574  0.89218  Biso   1.000  H
  H190     1.0000 0.56490  0.90583  0.95253  Biso   1.000  H
  H191     1.0000 0.44582  0.96990  0.88971  Biso   1.000  H
  H192     1.0000 0.44549  0.90991  0.82925  Biso   1.000  H
  H193     1.0000 0.50457  0.71674  0.80515  Biso   1.000  H
  H194     1.0000 0.50522  0.65654  0.74559  Biso   1.000  H
  H195     1.0000 0.50442  0.76223  0.63969  Biso   1.000  H
  H196     1.0000 0.50377  0.82191  0.69974  Biso   1.000  H
  C369     1.0000 0.19794  0.56430  0.85717  Biso   1.000  C
  C370     1.0000 0.16236  0.59717  0.85692  Biso   1.000  C
  C371     1.0000 0.12805  0.59613  0.89102  Biso   1.000  C
  C372     1.0000 0.12892  0.56212  0.92570  Biso   1.000  C
  C373     1.0000 0.16475  0.52932  0.92588  Biso   1.000  C
  C374     1.0000 0.19906  0.53041  0.89179  Biso   1.000  C
  C375     1.0000 0.23314  0.56519  0.82186  Biso   1.000  C
  C376     1.0000 0.26260  0.56578  0.79227  Biso   1.000  C
  C377     1.0000 0.29779  0.56625  0.75694  Biso   1.000  C
  C378     1.0000 0.34460  0.56618  0.76923  Biso   1.000  C
  C379     1.0000 0.37879  0.56600  0.73500  Biso   1.000  C
  C380     1.0000 0.36666  0.56585  0.68781  Biso   1.000  C
  C381     1.0000 0.31943  0.56619  0.67585  Biso   1.000  C
  C382     1.0000 0.28532  0.56637  0.71017  Biso   1.000  C
  H197     1.0000 0.16112  0.62356  0.83036  Biso   1.000  H
  H198     1.0000 0.10078  0.62181  0.89044  Biso   1.000  H
  H199     1.0000 0.16595  0.50284  0.95234  Biso   1.000  H
  H200     1.0000 0.22639  0.50480  0.89236  Biso   1.000  H
  H201     1.0000 0.35469  0.56608  0.80531  Biso   1.000  H
  H202     1.0000 0.41470  0.56578  0.74559  Biso   1.000  H
  H203     1.0000 0.30873  0.56613  0.63997  Biso   1.000  H
  H204     1.0000 0.24921  0.56644  0.70021  Biso   1.000  H
  C383     1.0000 0.81906  0.55907  0.85688  Biso   1.000  C
  C384     1.0000 0.81858  0.52582  0.89211  Biso   1.000  C
  C385     1.0000 0.85290  0.52603  0.92621  Biso   1.000  C
  C386     1.0000 0.88809  0.55950  0.92541  Biso   1.000  C
  C387     1.0000 0.88829  0.59291  0.89013  Biso   1.000  C
  C388     1.0000 0.85398  0.59264  0.85603  Biso   1.000  C
  C389     1.0000 0.78381  0.55873  0.82162  Biso   1.000  C
  C390     1.0000 0.75432  0.55851  0.79206  Biso   1.000  C
  C391     1.0000 0.71910  0.55840  0.75675  Biso   1.000  C
  C392     1.0000 0.67231  0.55826  0.76908  Biso   1.000  C
  C393     1.0000 0.63810  0.55864  0.73488  Biso   1.000  C
  C394     1.0000 0.65019  0.55919  0.68769  Biso   1.000  C
  C395     1.0000 0.69741  0.55908  0.67569  Biso   1.000  C
  C396     1.0000 0.73154  0.55871  0.70998  Biso   1.000  C
  H205     1.0000 0.79174  0.49971  0.89316  Biso   1.000  H
  H206     1.0000 0.85220  0.50002  0.95316  Biso   1.000  H
  H207     1.0000 0.91504  0.61910  0.88909  Biso   1.000  H
  H208     1.0000 0.85469  0.61857  0.82900  Biso   1.000  H
  H209     1.0000 0.66224  0.55801  0.80517  Biso   1.000  H
  H210     1.0000 0.60219  0.55866  0.74549  Biso   1.000  H
  H211     1.0000 0.70809  0.55946  0.63980  Biso   1.000  H
  H212     1.0000 0.76765  0.55880  0.70000  Biso   1.000  H
  C397     1.0000 0.81882  0.56444  0.23459  Biso   1.000  C
  C398     1.0000 0.81769  0.53055  0.19999  Biso   1.000  C
  C399     1.0000 0.85200  0.52943  0.16589  Biso   1.000  C
  C400     1.0000 0.88784  0.56222  0.16607  Biso   1.000  C
  C401     1.0000 0.88873  0.59624  0.20074  Biso   1.000  C
  C402     1.0000 0.85442  0.59730  0.23484  Biso   1.000  C
  C403     1.0000 0.78362  0.56536  0.26991  Biso   1.000  C
  C404     1.0000 0.75416  0.56596  0.29949  Biso   1.000  C
  C405     1.0000 0.71897  0.56644  0.33483  Biso   1.000  C
  C406     1.0000 0.67217  0.56636  0.32254  Biso   1.000  C
  C407     1.0000 0.63798  0.56617  0.35676  Biso   1.000  C
  C408     1.0000 0.65010  0.56602  0.40396  Biso   1.000  C
  C409     1.0000 0.69733  0.56638  0.41592  Biso   1.000  C
  C410     1.0000 0.73144  0.56656  0.38160  Biso   1.000  C
  H213     1.0000 0.79035  0.50495  0.19943  Biso   1.000  H
  H214     1.0000 0.85078  0.50294  0.13945  Biso   1.000  H
  H215     1.0000 0.91600  0.62191  0.20130  Biso   1.000  H
  H216     1.0000 0.85566  0.62370  0.26139  Biso   1.000  H
  H217     1.0000 0.66208  0.56626  0.28646  Biso   1.000  H
  H218     1.0000 0.60206  0.56594  0.34618  Biso   1.000  H
  H219     1.0000 0.70803  0.56631  0.45180  Biso   1.000  H
  H220     1.0000 0.76756  0.56663  0.39156  Biso   1.000  H
  C411     1.0000 0.19770  0.55904  0.23489  Biso   1.000  C
  C412     1.0000 0.19816  0.52578  0.19967  Biso   1.000  C
  C413     1.0000 0.16384  0.52599  0.16556  Biso   1.000  C
  C414     1.0000 0.12867  0.55948  0.16636  Biso   1.000  C
  C415     1.0000 0.12848  0.59290  0.20162  Biso   1.000  C
  C416     1.0000 0.16280  0.59262  0.23573  Biso   1.000  C
  C417     1.0000 0.23296  0.55869  0.27015  Biso   1.000  C
  C418     1.0000 0.26244  0.55847  0.29971  Biso   1.000  C
  C419     1.0000 0.29766  0.55836  0.33501  Biso   1.000  C
  C420     1.0000 0.28522  0.55862  0.38178  Biso   1.000  C
  C421     1.0000 0.31936  0.55900  0.41608  Biso   1.000  C
  C422     1.0000 0.36657  0.55916  0.40407  Biso   1.000  C
  C423     1.0000 0.37867  0.55867  0.35688  Biso   1.000  C
  C424     1.0000 0.34445  0.55828  0.32268  Biso   1.000  C
  H221     1.0000 0.22499  0.49965  0.19863  Biso   1.000  H
  H222     1.0000 0.16453  0.49998  0.13863  Biso   1.000  H
  H223     1.0000 0.10175  0.61911  0.20266  Biso   1.000  H
  H224     1.0000 0.16210  0.61857  0.26274  Biso   1.000  H
  H225     1.0000 0.24911  0.55867  0.39177  Biso   1.000  H
  H226     1.0000 0.30868  0.55934  0.45196  Biso   1.000  H
  H227     1.0000 0.41458  0.55873  0.34627  Biso   1.000  H
  H228     1.0000 0.35452  0.55806  0.28659  Biso   1.000  H
  C425     1.0000 0.19740  0.25193  0.54225  Biso   1.000  C
  C426     1.0000 0.16218  0.25240  0.50899  Biso   1.000  C
  C427     1.0000 0.12807  0.21808  0.50919  Biso   1.000  C
  C428     1.0000 0.12887  0.18290  0.54267  Biso   1.000  C
  C429     1.0000 0.16412  0.18271  0.57610  Biso   1.000  C
  C430     1.0000 0.19823  0.21702  0.57583  Biso   1.000  C
  C431     1.0000 0.23266  0.28719  0.54192  Biso   1.000  C
  C432     1.0000 0.26221  0.31668  0.54171  Biso   1.000  C
  C433     1.0000 0.29752  0.35189  0.54161  Biso   1.000  C
  C434     1.0000 0.28518  0.39868  0.54154  Biso   1.000  C
  C435     1.0000 0.31938  0.43290  0.54192  Biso   1.000  C
  C436     1.0000 0.36658  0.42081  0.54243  Biso   1.000  C
  C437     1.0000 0.37858  0.37359  0.54226  Biso   1.000  C
  C438     1.0000 0.34429  0.33946  0.54188  Biso   1.000  C
  H229     1.0000 0.16114  0.27923  0.48286  Biso   1.000  H
  H230     1.0000 0.10115  0.21877  0.48317  Biso   1.000  H
  H231     1.0000 0.16515  0.15597  0.60230  Biso   1.000  H
  H232     1.0000 0.22524  0.21632  0.60178  Biso   1.000  H
  H233     1.0000 0.24909  0.40875  0.54131  Biso   1.000  H
  H234     1.0000 0.30877  0.46881  0.54199  Biso   1.000  H
  H235     1.0000 0.41447  0.36291  0.54260  Biso   1.000  H
  H236     1.0000 0.35427  0.30335  0.54193  Biso   1.000  H
  C439     1.0000 0.19709  0.87306  0.54765  Biso   1.000  C
  C440     1.0000 0.19733  0.90865  0.58050  Biso   1.000  C
  C441     1.0000 0.16323  0.94296  0.57943  Biso   1.000  C
  C442     1.0000 0.12856  0.94207  0.54540  Biso   1.000  C
  C443     1.0000 0.12839  0.90623  0.51262  Biso   1.000  C
  C444     1.0000 0.16249  0.87191  0.51375  Biso   1.000  C
  C445     1.0000 0.23240  0.83785  0.54857  Biso   1.000  C
  C446     1.0000 0.26199  0.80840  0.54919  Biso   1.000  C
  C447     1.0000 0.29733  0.77321  0.54967  Biso   1.000  C
  C448     1.0000 0.34409  0.78567  0.54980  Biso   1.000  C
  C449     1.0000 0.37842  0.75156  0.54962  Biso   1.000  C
  C450     1.0000 0.36645  0.70434  0.54927  Biso   1.000  C
  C451     1.0000 0.31926  0.69221  0.54942  Biso   1.000  C
  C452     1.0000 0.28503  0.72640  0.54960  Biso   1.000  C
  H237     1.0000 0.22388  0.90990  0.60690  Biso   1.000  H
  H238     1.0000 0.16380  0.97024  0.60509  Biso   1.000  H
  H239     1.0000 0.10195  0.90501  0.48613  Biso   1.000  H
  H240     1.0000 0.16193  0.84457  0.48815  Biso   1.000  H
  H241     1.0000 0.35405  0.82179  0.54986  Biso   1.000  H
  H242     1.0000 0.41430  0.76227  0.54956  Biso   1.000  H
  H243     1.0000 0.30868  0.65629  0.54920  Biso   1.000  H
  H244     1.0000 0.24895  0.71631  0.54950  Biso   1.000  H
  C453     1.0000 0.81937  0.87331  0.54226  Biso   1.000  C
  C454     1.0000 0.85460  0.87282  0.50901  Biso   1.000  C
  C455     1.0000 0.88870  0.90714  0.50921  Biso   1.000  C
  C456     1.0000 0.88790  0.94233  0.54268  Biso   1.000  C
  C457     1.0000 0.85263  0.94254  0.57609  Biso   1.000  C
  C458     1.0000 0.81852  0.90823  0.57583  Biso   1.000  C
  C459     1.0000 0.78411  0.83805  0.54193  Biso   1.000  C
  C460     1.0000 0.75455  0.80856  0.54172  Biso   1.000  C
  C461     1.0000 0.71924  0.77335  0.54162  Biso   1.000  C
  C462     1.0000 0.73158  0.72655  0.54149  Biso   1.000  C
  C463     1.0000 0.69738  0.69234  0.54188  Biso   1.000  C
  C464     1.0000 0.65018  0.70443  0.54243  Biso   1.000  C
  C465     1.0000 0.63818  0.75165  0.54232  Biso   1.000  C
  C466     1.0000 0.67247  0.78578  0.54194  Biso   1.000  C
  H245     1.0000 0.85565  0.84598  0.48290  Biso   1.000  H
  H246     1.0000 0.91564  0.90644  0.48320  Biso   1.000  H
  H247     1.0000 0.85159  0.96929  0.60228  Biso   1.000  H
  H248     1.0000 0.79150  0.90894  0.60176  Biso   1.000  H
  H249     1.0000 0.76767  0.71649  0.54123  Biso   1.000  H
  H250     1.0000 0.70799  0.65643  0.54190  Biso   1.000  H
  H251     1.0000 0.60229  0.76233  0.54270  Biso   1.000  H
  H252     1.0000 0.66249  0.82189  0.54202  Biso   1.000  H
  C467     1.0000 0.81968  0.25218  0.54751  Biso   1.000  C
  C468     1.0000 0.85429  0.25331  0.51362  Biso   1.000  C
  C469     1.0000 0.88838  0.21899  0.51252  Biso   1.000  C
  C470     1.0000 0.88820  0.18316  0.54531  Biso   1.000  C
  C471     1.0000 0.85352  0.18228  0.57933  Biso   1.000  C
  C472     1.0000 0.81943  0.21659  0.58037  Biso   1.000  C
  C473     1.0000 0.78437  0.28738  0.54841  Biso   1.000  C
  C474     1.0000 0.75478  0.31684  0.54901  Biso   1.000  C
  C475     1.0000 0.71944  0.35203  0.54949  Biso   1.000  C
  C476     1.0000 0.73174  0.39884  0.54942  Biso   1.000  C
  C477     1.0000 0.69751  0.43303  0.54925  Biso   1.000  C
  C478     1.0000 0.65031  0.42090  0.54911  Biso   1.000  C
  C479     1.0000 0.63835  0.37367  0.54945  Biso   1.000  C
  C480     1.0000 0.67268  0.33956  0.54962  Biso   1.000  C
  H253     1.0000 0.85485  0.28064  0.48801  Biso   1.000  H
  H254     1.0000 0.91484  0.22020  0.48603  Biso   1.000  H
  H255     1.0000 0.85295  0.15501  0.60500  Biso   1.000  H
  H256     1.0000 0.79287  0.21535  0.60677  Biso   1.000  H
  H257     1.0000 0.76781  0.40893  0.54932  Biso   1.000  H
  H258     1.0000 0.70809  0.46894  0.54903  Biso   1.000  H
  H259     1.0000 0.60247  0.36297  0.54939  Biso   1.000  H
