data_image0
_cell_length_a       24.087
_cell_length_b       36.3295
_cell_length_c       36.3295
_cell_angle_alpha    90
_cell_angle_beta     90
_cell_angle_gamma    90

_symmetry_space_group_name_H-M    "P 1"
_symmetry_int_tables_number       1

loop_
  _symmetry_equiv_pos_as_xyz
  'x, y, z'

loop_
  _atom_site_label
  _atom_site_occupancy
  _atom_site_fract_x
  _atom_site_fract_y
  _atom_site_fract_z
  _atom_site_thermal_displace_type
  _atom_site_B_iso_or_equiv
  _atom_site_type_symbol
  C1       1.0000 0.50000  0.18713  0.50653  Biso   1.000  C
  C2       1.0000 0.50000  0.81287  0.49347  Biso   1.000  C
  C3       1.0000 0.50000  0.49347  0.18713  Biso   1.000  C
  C4       1.0000 0.50000  0.50653  0.81287  Biso   1.000  C
  C5       1.0000 0.00000  0.31287  0.00653  Biso   1.000  C
  C6       1.0000 0.00000  0.68713  0.99347  Biso   1.000  C
  C7       1.0000 0.00000  0.00653  0.68713  Biso   1.000  C
  C8       1.0000 0.00000  0.99347  0.31287  Biso   1.000  C
  C9       1.0000 0.00000  0.38493  0.01118  Biso   1.000  C
  C10      1.0000 0.00000  0.61507  0.98882  Biso   1.000  C
  C11      1.0000 0.00000  0.98882  0.38493  Biso   1.000  C
  C12      1.0000 0.00000  0.01118  0.61507  Biso   1.000  C
  C13      1.0000 0.50000  0.11507  0.51118  Biso   1.000  C
  C14      1.0000 0.50000  0.88493  0.48882  Biso   1.000  C
  C15      1.0000 0.50000  0.51118  0.88493  Biso   1.000  C
  C16      1.0000 0.50000  0.48882  0.11507  Biso   1.000  C
  C17      1.0000 0.33020  0.23090  0.74650  Biso   1.000  C
  C18      1.0000 0.37130  0.10300  0.59290  Biso   1.000  C
  C19      1.0000 0.19800  0.41000  0.88630  Biso   1.000  C
  C20      1.0000 0.12790  0.40930  0.92920  Biso   1.000  C
  C21      1.0000 0.37290  0.21260  0.58700  Biso   1.000  C
  C22      1.0000 0.17030  0.28770  0.76820  Biso   1.000  C
  C23      1.0000 0.12860  0.29950  0.92780  Biso   1.000  C
  C24      1.0000 0.30100  0.10620  0.63590  Biso   1.000  C
  C25      1.0000 0.17300  0.33500  0.81150  Biso   1.000  C
  C26      1.0000 0.32970  0.18690  0.70310  Biso   1.000  C
  C27      1.0000 0.19900  0.30050  0.88460  Biso   1.000  C
  C28      1.0000 0.30170  0.21520  0.62870  Biso   1.000  C
  C29      1.0000 0.33020  0.76910  0.25350  Biso   1.000  C
  C30      1.0000 0.37130  0.89700  0.40710  Biso   1.000  C
  C31      1.0000 0.19800  0.59000  0.11370  Biso   1.000  C
  C32      1.0000 0.12790  0.59070  0.07080  Biso   1.000  C
  C33      1.0000 0.37290  0.78740  0.41300  Biso   1.000  C
  C34      1.0000 0.17030  0.71230  0.23180  Biso   1.000  C
  C35      1.0000 0.12860  0.70050  0.07220  Biso   1.000  C
  C36      1.0000 0.30100  0.89380  0.36410  Biso   1.000  C
  C37      1.0000 0.17300  0.66500  0.18850  Biso   1.000  C
  C38      1.0000 0.32970  0.81310  0.29690  Biso   1.000  C
  C39      1.0000 0.19900  0.69950  0.11540  Biso   1.000  C
  C40      1.0000 0.30170  0.78480  0.37130  Biso   1.000  C
  C41      1.0000 0.33020  0.25350  0.23090  Biso   1.000  C
  C42      1.0000 0.37130  0.40710  0.10300  Biso   1.000  C
  C43      1.0000 0.19800  0.11370  0.41000  Biso   1.000  C
  C44      1.0000 0.12790  0.07080  0.40930  Biso   1.000  C
  C45      1.0000 0.37290  0.41300  0.21260  Biso   1.000  C
  C46      1.0000 0.17030  0.23180  0.28770  Biso   1.000  C
  C47      1.0000 0.12860  0.07220  0.29950  Biso   1.000  C
  C48      1.0000 0.30100  0.36410  0.10620  Biso   1.000  C
  C49      1.0000 0.17300  0.18850  0.33500  Biso   1.000  C
  C50      1.0000 0.32970  0.29690  0.18690  Biso   1.000  C
  C51      1.0000 0.19900  0.11540  0.30050  Biso   1.000  C
  C52      1.0000 0.30170  0.37130  0.21520  Biso   1.000  C
  C53      1.0000 0.33020  0.74650  0.76910  Biso   1.000  C
  C54      1.0000 0.37130  0.59290  0.89700  Biso   1.000  C
  C55      1.0000 0.19800  0.88630  0.59000  Biso   1.000  C
  C56      1.0000 0.12790  0.92920  0.59070  Biso   1.000  C
  C57      1.0000 0.37290  0.58700  0.78740  Biso   1.000  C
  C58      1.0000 0.17030  0.76820  0.71230  Biso   1.000  C
  C59      1.0000 0.12860  0.92780  0.70050  Biso   1.000  C
  C60      1.0000 0.30100  0.63590  0.89380  Biso   1.000  C
  C61      1.0000 0.17300  0.81150  0.66500  Biso   1.000  C
  C62      1.0000 0.32970  0.70310  0.81310  Biso   1.000  C
  C63      1.0000 0.19900  0.88460  0.69950  Biso   1.000  C
  C64      1.0000 0.30170  0.62870  0.78480  Biso   1.000  C
  C65      1.0000 0.16980  0.26910  0.24650  Biso   1.000  C
  C66      1.0000 0.12870  0.39700  0.09290  Biso   1.000  C
  C67      1.0000 0.30200  0.09000  0.38630  Biso   1.000  C
  C68      1.0000 0.37210  0.09070  0.42920  Biso   1.000  C
  C69      1.0000 0.12710  0.28740  0.08700  Biso   1.000  C
  C70      1.0000 0.32970  0.21230  0.26820  Biso   1.000  C
  C71      1.0000 0.37140  0.20050  0.42780  Biso   1.000  C
  C72      1.0000 0.19900  0.39380  0.13590  Biso   1.000  C
  C73      1.0000 0.32700  0.16500  0.31150  Biso   1.000  C
  C74      1.0000 0.17030  0.31310  0.20310  Biso   1.000  C
  C75      1.0000 0.30100  0.19950  0.38460  Biso   1.000  C
  C76      1.0000 0.19830  0.28480  0.12870  Biso   1.000  C
  C77      1.0000 0.16980  0.73090  0.75350  Biso   1.000  C
  C78      1.0000 0.12870  0.60300  0.90710  Biso   1.000  C
  C79      1.0000 0.30200  0.91000  0.61370  Biso   1.000  C
  C80      1.0000 0.37210  0.90930  0.57080  Biso   1.000  C
  C81      1.0000 0.12710  0.71260  0.91300  Biso   1.000  C
  C82      1.0000 0.32970  0.78770  0.73180  Biso   1.000  C
  C83      1.0000 0.37140  0.79950  0.57220  Biso   1.000  C
  C84      1.0000 0.19900  0.60620  0.86410  Biso   1.000  C
  C85      1.0000 0.32700  0.83500  0.68850  Biso   1.000  C
  C86      1.0000 0.17030  0.68690  0.79690  Biso   1.000  C
  C87      1.0000 0.30100  0.80050  0.61540  Biso   1.000  C
  C88      1.0000 0.19830  0.71520  0.87130  Biso   1.000  C
  C89      1.0000 0.16980  0.24650  0.73090  Biso   1.000  C
  C90      1.0000 0.12870  0.09290  0.60300  Biso   1.000  C
  C91      1.0000 0.30200  0.38630  0.91000  Biso   1.000  C
  C92      1.0000 0.37210  0.42920  0.90930  Biso   1.000  C
  C93      1.0000 0.12710  0.08700  0.71260  Biso   1.000  C
  C94      1.0000 0.32970  0.26820  0.78770  Biso   1.000  C
  C95      1.0000 0.37140  0.42780  0.79950  Biso   1.000  C
  C96      1.0000 0.19900  0.13590  0.60620  Biso   1.000  C
  C97      1.0000 0.32700  0.31150  0.83500  Biso   1.000  C
  C98      1.0000 0.17030  0.20310  0.68690  Biso   1.000  C
  C99      1.0000 0.30100  0.38460  0.80050  Biso   1.000  C
  C100     1.0000 0.19830  0.12870  0.71520  Biso   1.000  C
  C101     1.0000 0.16980  0.75350  0.26910  Biso   1.000  C
  C102     1.0000 0.12870  0.90710  0.39700  Biso   1.000  C
  C103     1.0000 0.30200  0.61370  0.09000  Biso   1.000  C
  C104     1.0000 0.37210  0.57080  0.09070  Biso   1.000  C
  C105     1.0000 0.12710  0.91300  0.28740  Biso   1.000  C
  C106     1.0000 0.32970  0.73180  0.21230  Biso   1.000  C
  C107     1.0000 0.37140  0.57220  0.20050  Biso   1.000  C
  C108     1.0000 0.19900  0.86410  0.39380  Biso   1.000  C
  C109     1.0000 0.32700  0.68850  0.16500  Biso   1.000  C
  C110     1.0000 0.17030  0.79690  0.31310  Biso   1.000  C
  C111     1.0000 0.30100  0.61540  0.19950  Biso   1.000  C
  C112     1.0000 0.19830  0.87130  0.28480  Biso   1.000  C
  C113     1.0000 0.66980  0.76910  0.25350  Biso   1.000  C
  C114     1.0000 0.62870  0.89700  0.40710  Biso   1.000  C
  C115     1.0000 0.80200  0.59000  0.11370  Biso   1.000  C
  C116     1.0000 0.87210  0.59070  0.07080  Biso   1.000  C
  C117     1.0000 0.62710  0.78740  0.41300  Biso   1.000  C
  C118     1.0000 0.82970  0.71230  0.23180  Biso   1.000  C
  C119     1.0000 0.87140  0.70050  0.07220  Biso   1.000  C
  C120     1.0000 0.69900  0.89380  0.36410  Biso   1.000  C
  C121     1.0000 0.82700  0.66500  0.18850  Biso   1.000  C
  C122     1.0000 0.67030  0.81310  0.29690  Biso   1.000  C
  C123     1.0000 0.80100  0.69950  0.11540  Biso   1.000  C
  C124     1.0000 0.69830  0.78480  0.37130  Biso   1.000  C
  C125     1.0000 0.66980  0.23090  0.74650  Biso   1.000  C
  C126     1.0000 0.62870  0.10300  0.59290  Biso   1.000  C
  C127     1.0000 0.80200  0.41000  0.88630  Biso   1.000  C
  C128     1.0000 0.87210  0.40930  0.92920  Biso   1.000  C
  C129     1.0000 0.62710  0.21260  0.58700  Biso   1.000  C
  C130     1.0000 0.82970  0.28770  0.76820  Biso   1.000  C
  C131     1.0000 0.87140  0.29950  0.92780  Biso   1.000  C
  C132     1.0000 0.69900  0.10620  0.63590  Biso   1.000  C
  C133     1.0000 0.82700  0.33500  0.81150  Biso   1.000  C
  C134     1.0000 0.67030  0.18690  0.70310  Biso   1.000  C
  C135     1.0000 0.80100  0.30050  0.88460  Biso   1.000  C
  C136     1.0000 0.69830  0.21520  0.62870  Biso   1.000  C
  C137     1.0000 0.66980  0.74650  0.76910  Biso   1.000  C
  C138     1.0000 0.62870  0.59290  0.89700  Biso   1.000  C
  C139     1.0000 0.80200  0.88630  0.59000  Biso   1.000  C
  C140     1.0000 0.87210  0.92920  0.59070  Biso   1.000  C
  C141     1.0000 0.62710  0.58700  0.78740  Biso   1.000  C
  C142     1.0000 0.82970  0.76820  0.71230  Biso   1.000  C
  C143     1.0000 0.87140  0.92780  0.70050  Biso   1.000  C
  C144     1.0000 0.69900  0.63590  0.89380  Biso   1.000  C
  C145     1.0000 0.82700  0.81150  0.66500  Biso   1.000  C
  C146     1.0000 0.67030  0.70310  0.81310  Biso   1.000  C
  C147     1.0000 0.80100  0.88460  0.69950  Biso   1.000  C
  C148     1.0000 0.69830  0.62870  0.78480  Biso   1.000  C
  C149     1.0000 0.66980  0.25350  0.23090  Biso   1.000  C
  C150     1.0000 0.62870  0.40710  0.10300  Biso   1.000  C
  C151     1.0000 0.80200  0.11370  0.41000  Biso   1.000  C
  C152     1.0000 0.87210  0.07080  0.40930  Biso   1.000  C
  C153     1.0000 0.62710  0.41300  0.21260  Biso   1.000  C
  C154     1.0000 0.82970  0.23180  0.28770  Biso   1.000  C
  C155     1.0000 0.87140  0.07220  0.29950  Biso   1.000  C
  C156     1.0000 0.69900  0.36410  0.10620  Biso   1.000  C
  C157     1.0000 0.82700  0.18850  0.33500  Biso   1.000  C
  C158     1.0000 0.67030  0.29690  0.18690  Biso   1.000  C
  C159     1.0000 0.80100  0.11540  0.30050  Biso   1.000  C
  C160     1.0000 0.69830  0.37130  0.21520  Biso   1.000  C
  C161     1.0000 0.83020  0.73090  0.75350  Biso   1.000  C
  C162     1.0000 0.87130  0.60300  0.90710  Biso   1.000  C
  C163     1.0000 0.69800  0.91000  0.61370  Biso   1.000  C
  C164     1.0000 0.62790  0.90930  0.57080  Biso   1.000  C
  C165     1.0000 0.87290  0.71260  0.91300  Biso   1.000  C
  C166     1.0000 0.67030  0.78770  0.73180  Biso   1.000  C
  C167     1.0000 0.62860  0.79950  0.57220  Biso   1.000  C
  C168     1.0000 0.80100  0.60620  0.86410  Biso   1.000  C
  C169     1.0000 0.67300  0.83500  0.68850  Biso   1.000  C
  C170     1.0000 0.82970  0.68690  0.79690  Biso   1.000  C
  C171     1.0000 0.69900  0.80050  0.61540  Biso   1.000  C
  C172     1.0000 0.80170  0.71520  0.87130  Biso   1.000  C
  C173     1.0000 0.83020  0.26910  0.24650  Biso   1.000  C
  C174     1.0000 0.87130  0.39700  0.09290  Biso   1.000  C
  C175     1.0000 0.69800  0.09000  0.38630  Biso   1.000  C
  C176     1.0000 0.62790  0.09070  0.42920  Biso   1.000  C
  C177     1.0000 0.87290  0.28740  0.08700  Biso   1.000  C
  C178     1.0000 0.67030  0.21230  0.26820  Biso   1.000  C
  C179     1.0000 0.62860  0.20050  0.42780  Biso   1.000  C
  C180     1.0000 0.80100  0.39380  0.13590  Biso   1.000  C
  C181     1.0000 0.67300  0.16500  0.31150  Biso   1.000  C
  C182     1.0000 0.82970  0.31310  0.20310  Biso   1.000  C
  C183     1.0000 0.69900  0.19950  0.38460  Biso   1.000  C
  C184     1.0000 0.80170  0.28480  0.12870  Biso   1.000  C
  C185     1.0000 0.83020  0.75350  0.26910  Biso   1.000  C
  C186     1.0000 0.87130  0.90710  0.39700  Biso   1.000  C
  C187     1.0000 0.69800  0.61370  0.09000  Biso   1.000  C
  C188     1.0000 0.62790  0.57080  0.09070  Biso   1.000  C
  C189     1.0000 0.87290  0.91300  0.28740  Biso   1.000  C
  C190     1.0000 0.67030  0.73180  0.21230  Biso   1.000  C
  C191     1.0000 0.62860  0.57220  0.20050  Biso   1.000  C
  C192     1.0000 0.80100  0.86410  0.39380  Biso   1.000  C
  C193     1.0000 0.67300  0.68850  0.16500  Biso   1.000  C
  C194     1.0000 0.82970  0.79690  0.31310  Biso   1.000  C
  C195     1.0000 0.69900  0.61540  0.19950  Biso   1.000  C
  C196     1.0000 0.80170  0.87130  0.28480  Biso   1.000  C
  C197     1.0000 0.83020  0.24650  0.73090  Biso   1.000  C
  C198     1.0000 0.87130  0.09290  0.60300  Biso   1.000  C
  C199     1.0000 0.69800  0.38630  0.91000  Biso   1.000  C
  C200     1.0000 0.62790  0.42920  0.90930  Biso   1.000  C
  C201     1.0000 0.87290  0.08700  0.71260  Biso   1.000  C
  C202     1.0000 0.67030  0.26820  0.78770  Biso   1.000  C
  C203     1.0000 0.62860  0.42780  0.79950  Biso   1.000  C
  C204     1.0000 0.80100  0.13590  0.60620  Biso   1.000  C
  C205     1.0000 0.67300  0.31150  0.83500  Biso   1.000  C
  C206     1.0000 0.82970  0.20310  0.68690  Biso   1.000  C
  C207     1.0000 0.69900  0.38460  0.80050  Biso   1.000  C
  C208     1.0000 0.80170  0.12870  0.71520  Biso   1.000  C
  C209     1.0000 0.29699  0.22542  0.73466  Biso   1.000  C
  C210     1.0000 0.37988  0.15755  0.58538  Biso   1.000  C
  C211     1.0000 0.29449  0.16042  0.63690  Biso   1.000  C
  C212     1.0000 0.35777  0.12581  0.60021  Biso   1.000  C
  C213     1.0000 0.20599  0.35556  0.88146  Biso   1.000  C
  C214     1.0000 0.12076  0.35403  0.93313  Biso   1.000  C
  C215     1.0000 0.18424  0.38764  0.89467  Biso   1.000  C
  C216     1.0000 0.14212  0.38724  0.92035  Biso   1.000  C
  C217     1.0000 0.35842  0.19090  0.59663  Biso   1.000  C
  C218     1.0000 0.20318  0.29272  0.78067  Biso   1.000  C
  C219     1.0000 0.14240  0.32191  0.91960  Biso   1.000  C
  C220     1.0000 0.31535  0.12782  0.62595  Biso   1.000  C
  C221     1.0000 0.20452  0.32078  0.80751  Biso   1.000  C
  C222     1.0000 0.29683  0.19914  0.70857  Biso   1.000  C
  C223     1.0000 0.18481  0.32254  0.89369  Biso   1.000  C
  C224     1.0000 0.31610  0.19245  0.62173  Biso   1.000  C
  C225     1.0000 0.42483  0.15538  0.55745  Biso   1.000  C
  C226     1.0000 0.07552  0.35362  0.96050  Biso   1.000  C
  C227     1.0000 0.29699  0.77458  0.26534  Biso   1.000  C
  C228     1.0000 0.37988  0.84245  0.41462  Biso   1.000  C
  C229     1.0000 0.29449  0.83958  0.36310  Biso   1.000  C
  C230     1.0000 0.35777  0.87419  0.39979  Biso   1.000  C
  C231     1.0000 0.20599  0.64444  0.11854  Biso   1.000  C
  C232     1.0000 0.12076  0.64597  0.06687  Biso   1.000  C
  C233     1.0000 0.18424  0.61236  0.10533  Biso   1.000  C
  C234     1.0000 0.14212  0.61276  0.07965  Biso   1.000  C
  C235     1.0000 0.35842  0.80910  0.40337  Biso   1.000  C
  C236     1.0000 0.20318  0.70728  0.21933  Biso   1.000  C
  C237     1.0000 0.14240  0.67809  0.08040  Biso   1.000  C
  C238     1.0000 0.31535  0.87218  0.37405  Biso   1.000  C
  C239     1.0000 0.20452  0.67922  0.19249  Biso   1.000  C
  C240     1.0000 0.29683  0.80086  0.29143  Biso   1.000  C
  C241     1.0000 0.18481  0.67746  0.10631  Biso   1.000  C
  C242     1.0000 0.31610  0.80755  0.37827  Biso   1.000  C
  C243     1.0000 0.42483  0.84462  0.44255  Biso   1.000  C
  C244     1.0000 0.07552  0.64638  0.03950  Biso   1.000  C
  C245     1.0000 0.29699  0.26534  0.22542  Biso   1.000  C
  C246     1.0000 0.37988  0.41462  0.15755  Biso   1.000  C
  C247     1.0000 0.29449  0.36310  0.16042  Biso   1.000  C
  C248     1.0000 0.35777  0.39979  0.12581  Biso   1.000  C
  C249     1.0000 0.20599  0.11854  0.35556  Biso   1.000  C
  C250     1.0000 0.12076  0.06687  0.35403  Biso   1.000  C
  C251     1.0000 0.18424  0.10533  0.38764  Biso   1.000  C
  C252     1.0000 0.14212  0.07965  0.38724  Biso   1.000  C
  C253     1.0000 0.35842  0.40337  0.19090  Biso   1.000  C
  C254     1.0000 0.20318  0.21933  0.29272  Biso   1.000  C
  C255     1.0000 0.14240  0.08040  0.32191  Biso   1.000  C
  C256     1.0000 0.31535  0.37405  0.12782  Biso   1.000  C
  C257     1.0000 0.20452  0.19249  0.32078  Biso   1.000  C
  C258     1.0000 0.29683  0.29143  0.19914  Biso   1.000  C
  C259     1.0000 0.18481  0.10631  0.32254  Biso   1.000  C
  C260     1.0000 0.31610  0.37827  0.19245  Biso   1.000  C
  C261     1.0000 0.42483  0.44255  0.15538  Biso   1.000  C
  C262     1.0000 0.07552  0.03950  0.35362  Biso   1.000  C
  C263     1.0000 0.29699  0.73466  0.77458  Biso   1.000  C
  C264     1.0000 0.37988  0.58538  0.84245  Biso   1.000  C
  C265     1.0000 0.29449  0.63690  0.83958  Biso   1.000  C
  C266     1.0000 0.35777  0.60021  0.87419  Biso   1.000  C
  C267     1.0000 0.20599  0.88146  0.64444  Biso   1.000  C
  C268     1.0000 0.12076  0.93313  0.64597  Biso   1.000  C
  C269     1.0000 0.18424  0.89467  0.61236  Biso   1.000  C
  C270     1.0000 0.14212  0.92035  0.61276  Biso   1.000  C
  C271     1.0000 0.35842  0.59663  0.80910  Biso   1.000  C
  C272     1.0000 0.20318  0.78067  0.70728  Biso   1.000  C
  C273     1.0000 0.14240  0.91960  0.67809  Biso   1.000  C
  C274     1.0000 0.31535  0.62595  0.87218  Biso   1.000  C
  C275     1.0000 0.20452  0.80751  0.67922  Biso   1.000  C
  C276     1.0000 0.29683  0.70857  0.80086  Biso   1.000  C
  C277     1.0000 0.18481  0.89369  0.67746  Biso   1.000  C
  C278     1.0000 0.31610  0.62173  0.80755  Biso   1.000  C
  C279     1.0000 0.42483  0.55745  0.84462  Biso   1.000  C
  C280     1.0000 0.07552  0.96050  0.64638  Biso   1.000  C
  C281     1.0000 0.20301  0.27458  0.23466  Biso   1.000  C
  C282     1.0000 0.12012  0.34245  0.08538  Biso   1.000  C
  C283     1.0000 0.20551  0.33958  0.13690  Biso   1.000  C
  C284     1.0000 0.14223  0.37419  0.10021  Biso   1.000  C
  C285     1.0000 0.29401  0.14444  0.38146  Biso   1.000  C
  C286     1.0000 0.37924  0.14597  0.43313  Biso   1.000  C
  C287     1.0000 0.31576  0.11236  0.39467  Biso   1.000  C
  C288     1.0000 0.35788  0.11276  0.42035  Biso   1.000  C
  C289     1.0000 0.14158  0.30910  0.09663  Biso   1.000  C
  C290     1.0000 0.29682  0.20728  0.28067  Biso   1.000  C
  C291     1.0000 0.35760  0.17809  0.41960  Biso   1.000  C
  C292     1.0000 0.18465  0.37218  0.12595  Biso   1.000  C
  C293     1.0000 0.29548  0.17922  0.30751  Biso   1.000  C
  C294     1.0000 0.20317  0.30086  0.20857  Biso   1.000  C
  C295     1.0000 0.31519  0.17746  0.39369  Biso   1.000  C
  C296     1.0000 0.18390  0.30755  0.12173  Biso   1.000  C
  C297     1.0000 0.07517  0.34462  0.05745  Biso   1.000  C
  C298     1.0000 0.42448  0.14638  0.46050  Biso   1.000  C
  C299     1.0000 0.20301  0.72542  0.76534  Biso   1.000  C
  C300     1.0000 0.12012  0.65755  0.91462  Biso   1.000  C
  C301     1.0000 0.20551  0.66042  0.86310  Biso   1.000  C
  C302     1.0000 0.14223  0.62581  0.89979  Biso   1.000  C
  C303     1.0000 0.29401  0.85556  0.61854  Biso   1.000  C
  C304     1.0000 0.37924  0.85403  0.56687  Biso   1.000  C
  C305     1.0000 0.31576  0.88764  0.60533  Biso   1.000  C
  C306     1.0000 0.35788  0.88724  0.57965  Biso   1.000  C
  C307     1.0000 0.14158  0.69090  0.90337  Biso   1.000  C
  C308     1.0000 0.29682  0.79272  0.71933  Biso   1.000  C
  C309     1.0000 0.35760  0.82191  0.58040  Biso   1.000  C
  C310     1.0000 0.18465  0.62782  0.87405  Biso   1.000  C
  C311     1.0000 0.29548  0.82078  0.69249  Biso   1.000  C
  C312     1.0000 0.20317  0.69914  0.79143  Biso   1.000  C
  C313     1.0000 0.31519  0.82254  0.60631  Biso   1.000  C
  C314     1.0000 0.18390  0.69245  0.87827  Biso   1.000  C
  C315     1.0000 0.07517  0.65538  0.94255  Biso   1.000  C
  C316     1.0000 0.42448  0.85362  0.53950  Biso   1.000  C
  C317     1.0000 0.20301  0.23466  0.72542  Biso   1.000  C
  C318     1.0000 0.12012  0.08538  0.65755  Biso   1.000  C
  C319     1.0000 0.20551  0.13690  0.66042  Biso   1.000  C
  C320     1.0000 0.14223  0.10021  0.62581  Biso   1.000  C
  C321     1.0000 0.29401  0.38146  0.85556  Biso   1.000  C
  C322     1.0000 0.37924  0.43313  0.85403  Biso   1.000  C
  C323     1.0000 0.31576  0.39467  0.88764  Biso   1.000  C
  C324     1.0000 0.35788  0.42035  0.88724  Biso   1.000  C
  C325     1.0000 0.14158  0.09663  0.69090  Biso   1.000  C
  C326     1.0000 0.29682  0.28067  0.79272  Biso   1.000  C
  C327     1.0000 0.35760  0.41960  0.82191  Biso   1.000  C
  C328     1.0000 0.18465  0.12595  0.62782  Biso   1.000  C
  C329     1.0000 0.29548  0.30751  0.82078  Biso   1.000  C
  C330     1.0000 0.20317  0.20857  0.69914  Biso   1.000  C
  C331     1.0000 0.31519  0.39369  0.82254  Biso   1.000  C
  C332     1.0000 0.18390  0.12173  0.69245  Biso   1.000  C
  C333     1.0000 0.07517  0.05745  0.65538  Biso   1.000  C
  C334     1.0000 0.42448  0.46050  0.85362  Biso   1.000  C
  C335     1.0000 0.20301  0.76534  0.27458  Biso   1.000  C
  C336     1.0000 0.12012  0.91462  0.34245  Biso   1.000  C
  C337     1.0000 0.20551  0.86310  0.33958  Biso   1.000  C
  C338     1.0000 0.14223  0.89979  0.37419  Biso   1.000  C
  C339     1.0000 0.29401  0.61854  0.14444  Biso   1.000  C
  C340     1.0000 0.37924  0.56687  0.14597  Biso   1.000  C
  C341     1.0000 0.31576  0.60533  0.11236  Biso   1.000  C
  C342     1.0000 0.35788  0.57965  0.11276  Biso   1.000  C
  C343     1.0000 0.14158  0.90337  0.30910  Biso   1.000  C
  C344     1.0000 0.29682  0.71933  0.20728  Biso   1.000  C
  C345     1.0000 0.35760  0.58040  0.17809  Biso   1.000  C
  C346     1.0000 0.18465  0.87405  0.37218  Biso   1.000  C
  C347     1.0000 0.29548  0.69249  0.17922  Biso   1.000  C
  C348     1.0000 0.20317  0.79143  0.30086  Biso   1.000  C
  C349     1.0000 0.31519  0.60631  0.17746  Biso   1.000  C
  C350     1.0000 0.18390  0.87827  0.30755  Biso   1.000  C
  C351     1.0000 0.07517  0.94255  0.34462  Biso   1.000  C
  C352     1.0000 0.42448  0.53950  0.14638  Biso   1.000  C
  C353     1.0000 0.70301  0.77458  0.26534  Biso   1.000  C
  C354     1.0000 0.62012  0.84245  0.41462  Biso   1.000  C
  C355     1.0000 0.70551  0.83958  0.36310  Biso   1.000  C
  C356     1.0000 0.64223  0.87419  0.39979  Biso   1.000  C
  C357     1.0000 0.79401  0.64444  0.11854  Biso   1.000  C
  C358     1.0000 0.87924  0.64597  0.06687  Biso   1.000  C
  C359     1.0000 0.81576  0.61236  0.10533  Biso   1.000  C
  C360     1.0000 0.85788  0.61276  0.07965  Biso   1.000  C
  C361     1.0000 0.64158  0.80910  0.40337  Biso   1.000  C
  C362     1.0000 0.79682  0.70728  0.21933  Biso   1.000  C
  C363     1.0000 0.85760  0.67809  0.08040  Biso   1.000  C
  C364     1.0000 0.68465  0.87218  0.37405  Biso   1.000  C
  C365     1.0000 0.79548  0.67922  0.19249  Biso   1.000  C
  C366     1.0000 0.70317  0.80086  0.29143  Biso   1.000  C
  C367     1.0000 0.81519  0.67746  0.10631  Biso   1.000  C
  C368     1.0000 0.68390  0.80755  0.37827  Biso   1.000  C
  C369     1.0000 0.57517  0.84462  0.44255  Biso   1.000  C
  C370     1.0000 0.92448  0.64638  0.03950  Biso   1.000  C
  C371     1.0000 0.70301  0.22542  0.73466  Biso   1.000  C
  C372     1.0000 0.62012  0.15755  0.58538  Biso   1.000  C
  C373     1.0000 0.70551  0.16042  0.63690  Biso   1.000  C
  C374     1.0000 0.64223  0.12581  0.60021  Biso   1.000  C
  C375     1.0000 0.79401  0.35556  0.88146  Biso   1.000  C
  C376     1.0000 0.87924  0.35403  0.93313  Biso   1.000  C
  C377     1.0000 0.81576  0.38764  0.89467  Biso   1.000  C
  C378     1.0000 0.85788  0.38724  0.92035  Biso   1.000  C
  C379     1.0000 0.64158  0.19090  0.59663  Biso   1.000  C
  C380     1.0000 0.79682  0.29272  0.78067  Biso   1.000  C
  C381     1.0000 0.85760  0.32191  0.91960  Biso   1.000  C
  C382     1.0000 0.68465  0.12782  0.62595  Biso   1.000  C
  C383     1.0000 0.79548  0.32078  0.80751  Biso   1.000  C
  C384     1.0000 0.70317  0.19914  0.70857  Biso   1.000  C
  C385     1.0000 0.81519  0.32254  0.89369  Biso   1.000  C
  C386     1.0000 0.68390  0.19245  0.62173  Biso   1.000  C
  C387     1.0000 0.57517  0.15538  0.55745  Biso   1.000  C
  C388     1.0000 0.92448  0.35362  0.96050  Biso   1.000  C
  C389     1.0000 0.70301  0.73466  0.77458  Biso   1.000  C
  C390     1.0000 0.62012  0.58538  0.84245  Biso   1.000  C
  C391     1.0000 0.70551  0.63690  0.83958  Biso   1.000  C
  C392     1.0000 0.64223  0.60021  0.87419  Biso   1.000  C
  C393     1.0000 0.79401  0.88146  0.64444  Biso   1.000  C
  C394     1.0000 0.87924  0.93313  0.64597  Biso   1.000  C
  C395     1.0000 0.81576  0.89467  0.61236  Biso   1.000  C
  C396     1.0000 0.85788  0.92035  0.61276  Biso   1.000  C
  C397     1.0000 0.64158  0.59663  0.80910  Biso   1.000  C
  C398     1.0000 0.79682  0.78067  0.70728  Biso   1.000  C
  C399     1.0000 0.85760  0.91960  0.67809  Biso   1.000  C
  C400     1.0000 0.68465  0.62595  0.87218  Biso   1.000  C
  C401     1.0000 0.79548  0.80751  0.67922  Biso   1.000  C
  C402     1.0000 0.70317  0.70857  0.80086  Biso   1.000  C
  C403     1.0000 0.81519  0.89369  0.67746  Biso   1.000  C
  C404     1.0000 0.68390  0.62173  0.80755  Biso   1.000  C
  C405     1.0000 0.57517  0.55745  0.84462  Biso   1.000  C
  C406     1.0000 0.92448  0.96050  0.64638  Biso   1.000  C
  C407     1.0000 0.70301  0.26534  0.22542  Biso   1.000  C
  C408     1.0000 0.62012  0.41462  0.15755  Biso   1.000  C
  C409     1.0000 0.70551  0.36310  0.16042  Biso   1.000  C
  C410     1.0000 0.64223  0.39979  0.12581  Biso   1.000  C
  C411     1.0000 0.79401  0.11854  0.35556  Biso   1.000  C
  C412     1.0000 0.87924  0.06687  0.35403  Biso   1.000  C
  C413     1.0000 0.81576  0.10533  0.38764  Biso   1.000  C
  C414     1.0000 0.85788  0.07965  0.38724  Biso   1.000  C
  C415     1.0000 0.64158  0.40337  0.19090  Biso   1.000  C
  C416     1.0000 0.79682  0.21933  0.29272  Biso   1.000  C
  C417     1.0000 0.85760  0.08040  0.32191  Biso   1.000  C
  C418     1.0000 0.68465  0.37405  0.12782  Biso   1.000  C
  C419     1.0000 0.79548  0.19249  0.32078  Biso   1.000  C
  C420     1.0000 0.70317  0.29143  0.19914  Biso   1.000  C
  C421     1.0000 0.81519  0.10631  0.32254  Biso   1.000  C
  C422     1.0000 0.68390  0.37827  0.19245  Biso   1.000  C
  C423     1.0000 0.57517  0.44255  0.15538  Biso   1.000  C
  C424     1.0000 0.92448  0.03950  0.35362  Biso   1.000  C
  C425     1.0000 0.79699  0.72542  0.76534  Biso   1.000  C
  C426     1.0000 0.87988  0.65755  0.91462  Biso   1.000  C
  C427     1.0000 0.79449  0.66042  0.86310  Biso   1.000  C
  C428     1.0000 0.85777  0.62581  0.89979  Biso   1.000  C
  C429     1.0000 0.70599  0.85556  0.61854  Biso   1.000  C
  C430     1.0000 0.62076  0.85403  0.56687  Biso   1.000  C
  C431     1.0000 0.68424  0.88764  0.60533  Biso   1.000  C
  C432     1.0000 0.64212  0.88724  0.57965  Biso   1.000  C
  C433     1.0000 0.85842  0.69090  0.90337  Biso   1.000  C
  C434     1.0000 0.70318  0.79272  0.71933  Biso   1.000  C
  C435     1.0000 0.64240  0.82191  0.58040  Biso   1.000  C
  C436     1.0000 0.81535  0.62782  0.87405  Biso   1.000  C
  C437     1.0000 0.70452  0.82078  0.69249  Biso   1.000  C
  C438     1.0000 0.79683  0.69914  0.79143  Biso   1.000  C
  C439     1.0000 0.68481  0.82254  0.60631  Biso   1.000  C
  C440     1.0000 0.81610  0.69245  0.87827  Biso   1.000  C
  C441     1.0000 0.92483  0.65538  0.94255  Biso   1.000  C
  C442     1.0000 0.57552  0.85362  0.53950  Biso   1.000  C
  C443     1.0000 0.79699  0.27458  0.23466  Biso   1.000  C
  C444     1.0000 0.87988  0.34245  0.08538  Biso   1.000  C
  C445     1.0000 0.79449  0.33958  0.13690  Biso   1.000  C
  C446     1.0000 0.85777  0.37419  0.10021  Biso   1.000  C
  C447     1.0000 0.70599  0.14444  0.38146  Biso   1.000  C
  C448     1.0000 0.62076  0.14597  0.43313  Biso   1.000  C
  C449     1.0000 0.68424  0.11236  0.39467  Biso   1.000  C
  C450     1.0000 0.64212  0.11276  0.42035  Biso   1.000  C
  C451     1.0000 0.85842  0.30910  0.09663  Biso   1.000  C
  C452     1.0000 0.70318  0.20728  0.28067  Biso   1.000  C
  C453     1.0000 0.64240  0.17809  0.41960  Biso   1.000  C
  C454     1.0000 0.81535  0.37218  0.12595  Biso   1.000  C
  C455     1.0000 0.70452  0.17922  0.30751  Biso   1.000  C
  C456     1.0000 0.79683  0.30086  0.20857  Biso   1.000  C
  C457     1.0000 0.68481  0.17746  0.39369  Biso   1.000  C
  C458     1.0000 0.81610  0.30755  0.12173  Biso   1.000  C
  C459     1.0000 0.92483  0.34462  0.05745  Biso   1.000  C
  C460     1.0000 0.57552  0.14638  0.46050  Biso   1.000  C
  C461     1.0000 0.79699  0.76534  0.27458  Biso   1.000  C
  C462     1.0000 0.87988  0.91462  0.34245  Biso   1.000  C
  C463     1.0000 0.79449  0.86310  0.33958  Biso   1.000  C
  C464     1.0000 0.85777  0.89979  0.37419  Biso   1.000  C
  C465     1.0000 0.70599  0.61854  0.14444  Biso   1.000  C
  C466     1.0000 0.62076  0.56687  0.14597  Biso   1.000  C
  C467     1.0000 0.68424  0.60533  0.11236  Biso   1.000  C
  C468     1.0000 0.64212  0.57965  0.11276  Biso   1.000  C
  C469     1.0000 0.85842  0.90337  0.30910  Biso   1.000  C
  C470     1.0000 0.70318  0.71933  0.20728  Biso   1.000  C
  C471     1.0000 0.64240  0.58040  0.17809  Biso   1.000  C
  C472     1.0000 0.81535  0.87405  0.37218  Biso   1.000  C
  C473     1.0000 0.70452  0.69249  0.17922  Biso   1.000  C
  C474     1.0000 0.79683  0.79143  0.30086  Biso   1.000  C
  C475     1.0000 0.68481  0.60631  0.17746  Biso   1.000  C
  C476     1.0000 0.81610  0.87827  0.30755  Biso   1.000  C
  C477     1.0000 0.92483  0.94255  0.34462  Biso   1.000  C
  C478     1.0000 0.57552  0.53950  0.14638  Biso   1.000  C
  C479     1.0000 0.79699  0.23466  0.72542  Biso   1.000  C
  C480     1.0000 0.87988  0.08538  0.65755  Biso   1.000  C
  C481     1.0000 0.79449  0.13690  0.66042  Biso   1.000  C
  C482     1.0000 0.85777  0.10021  0.62581  Biso   1.000  C
  C483     1.0000 0.70599  0.38146  0.85556  Biso   1.000  C
  C484     1.0000 0.62076  0.43313  0.85403  Biso   1.000  C
  C485     1.0000 0.68424  0.39467  0.88764  Biso   1.000  C
  C486     1.0000 0.64212  0.42035  0.88724  Biso   1.000  C
  C487     1.0000 0.85842  0.09663  0.69090  Biso   1.000  C
  C488     1.0000 0.70318  0.28067  0.79272  Biso   1.000  C
  C489     1.0000 0.64240  0.41960  0.82191  Biso   1.000  C
  C490     1.0000 0.81535  0.12595  0.62782  Biso   1.000  C
  C491     1.0000 0.70452  0.30751  0.82078  Biso   1.000  C
  C492     1.0000 0.79683  0.20857  0.69914  Biso   1.000  C
  C493     1.0000 0.68481  0.39369  0.82254  Biso   1.000  C
  C494     1.0000 0.81610  0.12173  0.69245  Biso   1.000  C
  C495     1.0000 0.92483  0.05745  0.65538  Biso   1.000  C
  C496     1.0000 0.57552  0.46050  0.85362  Biso   1.000  C
  C497     1.0000 0.25000  0.32727  0.82727  Biso   1.000  C
  C498     1.0000 0.25000  0.27303  0.77303  Biso   1.000  C
  C499     1.0000 0.25000  0.24457  0.74457  Biso   1.000  C
  C500     1.0000 0.25000  0.18998  0.68998  Biso   1.000  C
  C501     1.0000 0.25000  0.67273  0.17273  Biso   1.000  C
  C502     1.0000 0.25000  0.72697  0.22697  Biso   1.000  C
  C503     1.0000 0.25000  0.75543  0.25543  Biso   1.000  C
  C504     1.0000 0.25000  0.81002  0.31002  Biso   1.000  C
  C505     1.0000 0.25000  0.17273  0.32727  Biso   1.000  C
  C506     1.0000 0.25000  0.22697  0.27303  Biso   1.000  C
  C507     1.0000 0.25000  0.25543  0.24457  Biso   1.000  C
  C508     1.0000 0.25000  0.31002  0.18998  Biso   1.000  C
  C509     1.0000 0.25000  0.82727  0.67273  Biso   1.000  C
  C510     1.0000 0.25000  0.77303  0.72697  Biso   1.000  C
  C511     1.0000 0.25000  0.74457  0.75543  Biso   1.000  C
  C512     1.0000 0.25000  0.68998  0.81002  Biso   1.000  C
  C513     1.0000 0.75000  0.67273  0.17273  Biso   1.000  C
  C514     1.0000 0.75000  0.72697  0.22697  Biso   1.000  C
  C515     1.0000 0.75000  0.75543  0.25543  Biso   1.000  C
  C516     1.0000 0.75000  0.81002  0.31002  Biso   1.000  C
  C517     1.0000 0.75000  0.32727  0.82727  Biso   1.000  C
  C518     1.0000 0.75000  0.27303  0.77303  Biso   1.000  C
  C519     1.0000 0.75000  0.24457  0.74457  Biso   1.000  C
  C520     1.0000 0.75000  0.18998  0.68998  Biso   1.000  C
  C521     1.0000 0.75000  0.82727  0.67273  Biso   1.000  C
  C522     1.0000 0.75000  0.77303  0.72697  Biso   1.000  C
  C523     1.0000 0.75000  0.74457  0.75543  Biso   1.000  C
  C524     1.0000 0.75000  0.68998  0.81002  Biso   1.000  C
  C525     1.0000 0.75000  0.17273  0.32727  Biso   1.000  C
  C526     1.0000 0.75000  0.22697  0.27303  Biso   1.000  C
  C527     1.0000 0.75000  0.25543  0.24457  Biso   1.000  C
  C528     1.0000 0.75000  0.31002  0.18998  Biso   1.000  C
  C529     1.0000 0.25000  0.35516  0.85516  Biso   1.000  C
  C530     1.0000 0.25000  0.16249  0.66249  Biso   1.000  C
  C531     1.0000 0.25000  0.64484  0.14484  Biso   1.000  C
  C532     1.0000 0.25000  0.83751  0.33751  Biso   1.000  C
  C533     1.0000 0.25000  0.14484  0.35516  Biso   1.000  C
  C534     1.0000 0.25000  0.33751  0.16249  Biso   1.000  C
  C535     1.0000 0.25000  0.85516  0.64484  Biso   1.000  C
  C536     1.0000 0.25000  0.66249  0.83751  Biso   1.000  C
  C537     1.0000 0.75000  0.64484  0.14484  Biso   1.000  C
  C538     1.0000 0.75000  0.83751  0.33751  Biso   1.000  C
  C539     1.0000 0.75000  0.35516  0.85516  Biso   1.000  C
  C540     1.0000 0.75000  0.16249  0.66249  Biso   1.000  C
  C541     1.0000 0.75000  0.85516  0.64484  Biso   1.000  C
  C542     1.0000 0.75000  0.66249  0.83751  Biso   1.000  C
  C543     1.0000 0.75000  0.14484  0.35516  Biso   1.000  C
  C544     1.0000 0.75000  0.33751  0.16249  Biso   1.000  C
  C545     1.0000 0.44241  0.18537  0.54470  Biso   1.000  C
  C546     1.0000 0.05789  0.38314  0.97318  Biso   1.000  C
  C547     1.0000 0.44202  0.12440  0.54816  Biso   1.000  C
  C548     1.0000 0.05769  0.32197  0.96956  Biso   1.000  C
  C549     1.0000 0.44241  0.81463  0.45530  Biso   1.000  C
  C550     1.0000 0.05789  0.61686  0.02682  Biso   1.000  C
  C551     1.0000 0.44202  0.87560  0.45184  Biso   1.000  C
  C552     1.0000 0.05769  0.67803  0.03044  Biso   1.000  C
  C553     1.0000 0.44241  0.45530  0.18537  Biso   1.000  C
  C554     1.0000 0.05789  0.02682  0.38314  Biso   1.000  C
  C555     1.0000 0.44202  0.45184  0.12440  Biso   1.000  C
  C556     1.0000 0.05769  0.03044  0.32197  Biso   1.000  C
  C557     1.0000 0.44241  0.54470  0.81463  Biso   1.000  C
  C558     1.0000 0.05789  0.97318  0.61686  Biso   1.000  C
  C559     1.0000 0.44202  0.54816  0.87560  Biso   1.000  C
  C560     1.0000 0.05769  0.96956  0.67803  Biso   1.000  C
  C561     1.0000 0.05759  0.31463  0.04470  Biso   1.000  C
  C562     1.0000 0.44211  0.11686  0.47318  Biso   1.000  C
  C563     1.0000 0.05798  0.37560  0.04816  Biso   1.000  C
  C564     1.0000 0.44231  0.17803  0.46956  Biso   1.000  C
  C565     1.0000 0.05759  0.68537  0.95530  Biso   1.000  C
  C566     1.0000 0.44211  0.88314  0.52682  Biso   1.000  C
  C567     1.0000 0.05798  0.62440  0.95184  Biso   1.000  C
  C568     1.0000 0.44231  0.82197  0.53044  Biso   1.000  C
  C569     1.0000 0.05759  0.04470  0.68537  Biso   1.000  C
  C570     1.0000 0.44211  0.47318  0.88314  Biso   1.000  C
  C571     1.0000 0.05798  0.04816  0.62440  Biso   1.000  C
  C572     1.0000 0.44231  0.46956  0.82197  Biso   1.000  C
  C573     1.0000 0.05759  0.95530  0.31463  Biso   1.000  C
  C574     1.0000 0.44211  0.52682  0.11686  Biso   1.000  C
  C575     1.0000 0.05798  0.95184  0.37560  Biso   1.000  C
  C576     1.0000 0.44231  0.53044  0.17803  Biso   1.000  C
  C577     1.0000 0.55759  0.81463  0.45530  Biso   1.000  C
  C578     1.0000 0.94211  0.61686  0.02682  Biso   1.000  C
  C579     1.0000 0.55798  0.87560  0.45184  Biso   1.000  C
  C580     1.0000 0.94231  0.67803  0.03044  Biso   1.000  C
  C581     1.0000 0.55759  0.18537  0.54470  Biso   1.000  C
  C582     1.0000 0.94211  0.38314  0.97318  Biso   1.000  C
  C583     1.0000 0.55798  0.12440  0.54816  Biso   1.000  C
  C584     1.0000 0.94231  0.32197  0.96956  Biso   1.000  C
  C585     1.0000 0.55759  0.54470  0.81463  Biso   1.000  C
  C586     1.0000 0.94211  0.97318  0.61686  Biso   1.000  C
  C587     1.0000 0.55798  0.54816  0.87560  Biso   1.000  C
  C588     1.0000 0.94231  0.96956  0.67803  Biso   1.000  C
  C589     1.0000 0.55759  0.45530  0.18537  Biso   1.000  C
  C590     1.0000 0.94211  0.02682  0.38314  Biso   1.000  C
  C591     1.0000 0.55798  0.45184  0.12440  Biso   1.000  C
  C592     1.0000 0.94231  0.03044  0.32197  Biso   1.000  C
  C593     1.0000 0.94241  0.68537  0.95530  Biso   1.000  C
  C594     1.0000 0.55789  0.88314  0.52682  Biso   1.000  C
  C595     1.0000 0.94202  0.62440  0.95184  Biso   1.000  C
  C596     1.0000 0.55769  0.82197  0.53044  Biso   1.000  C
  C597     1.0000 0.94241  0.31463  0.04470  Biso   1.000  C
  C598     1.0000 0.55789  0.11686  0.47318  Biso   1.000  C
  C599     1.0000 0.94202  0.37560  0.04816  Biso   1.000  C
  C600     1.0000 0.55769  0.17803  0.46956  Biso   1.000  C
  C601     1.0000 0.94241  0.95530  0.31463  Biso   1.000  C
  C602     1.0000 0.55789  0.52682  0.11686  Biso   1.000  C
  C603     1.0000 0.94202  0.95184  0.37560  Biso   1.000  C
  C604     1.0000 0.55769  0.53044  0.17803  Biso   1.000  C
  C605     1.0000 0.94241  0.04470  0.68537  Biso   1.000  C
  C606     1.0000 0.55789  0.47318  0.88314  Biso   1.000  C
  C607     1.0000 0.94202  0.04816  0.62440  Biso   1.000  C
  C608     1.0000 0.55769  0.46956  0.82197  Biso   1.000  C
  O1       1.0000 0.24910  0.30278  0.49547  Biso   1.000  O
  O2       1.0000 0.24910  0.67704  0.50853  Biso   1.000  O
  O3       1.0000 0.24910  0.99644  0.81487  Biso   1.000  O
  O4       1.0000 0.24910  0.98338  0.18913  Biso   1.000  O
  O5       1.0000 0.74910  0.17704  0.99547  Biso   1.000  O
  O6       1.0000 0.74910  0.80278  0.00853  Biso   1.000  O
  O7       1.0000 0.74910  0.48338  0.31487  Biso   1.000  O
  O8       1.0000 0.74910  0.49644  0.68913  Biso   1.000  O
  O9       1.0000 0.74910  0.10498  0.99082  Biso   1.000  O
  O10      1.0000 0.74910  0.87484  0.01318  Biso   1.000  O
  O11      1.0000 0.74910  0.50109  0.61707  Biso   1.000  O
  O12      1.0000 0.74910  0.47873  0.38693  Biso   1.000  O
  O13      1.0000 0.24910  0.37484  0.49082  Biso   1.000  O
  O14      1.0000 0.24910  0.60498  0.51318  Biso   1.000  O
  O15      1.0000 0.24910  0.97873  0.11707  Biso   1.000  O
  O16      1.0000 0.24910  0.00109  0.88693  Biso   1.000  O
  O17      1.0000 0.07930  0.25901  0.25550  Biso   1.000  O
  O18      1.0000 0.12040  0.38691  0.40910  Biso   1.000  O
  O19      1.0000 0.94710  0.07991  0.11570  Biso   1.000  O
  O20      1.0000 0.87700  0.08061  0.07280  Biso   1.000  O
  O21      1.0000 0.12200  0.27731  0.41500  Biso   1.000  O
  O22      1.0000 0.91940  0.20221  0.23380  Biso   1.000  O
  O23      1.0000 0.87770  0.19041  0.07420  Biso   1.000  O
  O24      1.0000 0.05010  0.38371  0.36610  Biso   1.000  O
  O25      1.0000 0.92210  0.15491  0.19050  Biso   1.000  O
  O26      1.0000 0.07880  0.30301  0.29890  Biso   1.000  O
  O27      1.0000 0.94810  0.18941  0.11740  Biso   1.000  O
  O28      1.0000 0.05080  0.27471  0.37330  Biso   1.000  O
  O29      1.0000 0.07930  0.72081  0.74850  Biso   1.000  O
  O30      1.0000 0.12040  0.59291  0.59490  Biso   1.000  O
  O31      1.0000 0.94710  0.89991  0.88830  Biso   1.000  O
  O32      1.0000 0.87700  0.89921  0.93120  Biso   1.000  O
  O33      1.0000 0.12200  0.70251  0.58900  Biso   1.000  O
  O34      1.0000 0.91940  0.77761  0.77020  Biso   1.000  O
  O35      1.0000 0.87770  0.78941  0.92980  Biso   1.000  O
  O36      1.0000 0.05010  0.59611  0.63790  Biso   1.000  O
  O37      1.0000 0.92210  0.82491  0.81350  Biso   1.000  O
  O38      1.0000 0.07880  0.67681  0.70510  Biso   1.000  O
  O39      1.0000 0.94810  0.79041  0.88660  Biso   1.000  O
  O40      1.0000 0.05080  0.70511  0.63070  Biso   1.000  O
  O41      1.0000 0.07930  0.23641  0.77110  Biso   1.000  O
  O42      1.0000 0.12040  0.08281  0.89900  Biso   1.000  O
  O43      1.0000 0.94710  0.37621  0.59200  Biso   1.000  O
  O44      1.0000 0.87700  0.41911  0.59270  Biso   1.000  O
  O45      1.0000 0.12200  0.07691  0.78940  Biso   1.000  O
  O46      1.0000 0.91940  0.25811  0.71430  Biso   1.000  O
  O47      1.0000 0.87770  0.41771  0.70250  Biso   1.000  O
  O48      1.0000 0.05010  0.12581  0.89580  Biso   1.000  O
  O49      1.0000 0.92210  0.30141  0.66700  Biso   1.000  O
  O50      1.0000 0.07880  0.19301  0.81510  Biso   1.000  O
  O51      1.0000 0.94810  0.37451  0.70150  Biso   1.000  O
  O52      1.0000 0.05080  0.11861  0.78680  Biso   1.000  O
  O53      1.0000 0.07930  0.74341  0.23290  Biso   1.000  O
  O54      1.0000 0.12040  0.89701  0.10500  Biso   1.000  O
  O55      1.0000 0.94710  0.60361  0.41200  Biso   1.000  O
  O56      1.0000 0.87700  0.56071  0.41130  Biso   1.000  O
  O57      1.0000 0.12200  0.90291  0.21460  Biso   1.000  O
  O58      1.0000 0.91940  0.72171  0.28970  Biso   1.000  O
  O59      1.0000 0.87770  0.56211  0.30150  Biso   1.000  O
  O60      1.0000 0.05010  0.85401  0.10820  Biso   1.000  O
  O61      1.0000 0.92210  0.67841  0.33700  Biso   1.000  O
  O62      1.0000 0.07880  0.78681  0.18890  Biso   1.000  O
  O63      1.0000 0.94810  0.60531  0.30250  Biso   1.000  O
  O64      1.0000 0.05080  0.86121  0.21720  Biso   1.000  O
  O65      1.0000 0.91890  0.22081  0.75550  Biso   1.000  O
  O66      1.0000 0.87780  0.09291  0.90910  Biso   1.000  O
  O67      1.0000 0.05110  0.39991  0.61570  Biso   1.000  O
  O68      1.0000 0.12120  0.39921  0.57280  Biso   1.000  O
  O69      1.0000 0.87620  0.20251  0.91500  Biso   1.000  O
  O70      1.0000 0.07880  0.27761  0.73380  Biso   1.000  O
  O71      1.0000 0.12050  0.28941  0.57420  Biso   1.000  O
  O72      1.0000 0.94810  0.09611  0.86610  Biso   1.000  O
  O73      1.0000 0.07610  0.32491  0.69050  Biso   1.000  O
  O74      1.0000 0.91940  0.17681  0.79890  Biso   1.000  O
  O75      1.0000 0.05010  0.29041  0.61740  Biso   1.000  O
  O76      1.0000 0.94740  0.20511  0.87330  Biso   1.000  O
  O77      1.0000 0.91890  0.75901  0.24850  Biso   1.000  O
  O78      1.0000 0.87780  0.88691  0.09490  Biso   1.000  O
  O79      1.0000 0.05110  0.57991  0.38830  Biso   1.000  O
  O80      1.0000 0.12120  0.58061  0.43120  Biso   1.000  O
  O81      1.0000 0.87620  0.77731  0.08900  Biso   1.000  O
  O82      1.0000 0.07880  0.70221  0.27020  Biso   1.000  O
  O83      1.0000 0.12050  0.69041  0.42980  Biso   1.000  O
  O84      1.0000 0.94810  0.88371  0.13790  Biso   1.000  O
  O85      1.0000 0.07610  0.65491  0.31350  Biso   1.000  O
  O86      1.0000 0.91940  0.80301  0.20510  Biso   1.000  O
  O87      1.0000 0.05010  0.68941  0.38660  Biso   1.000  O
  O88      1.0000 0.94740  0.77471  0.13070  Biso   1.000  O
  O89      1.0000 0.91890  0.24341  0.27110  Biso   1.000  O
  O90      1.0000 0.87780  0.39701  0.39900  Biso   1.000  O
  O91      1.0000 0.05110  0.10361  0.09200  Biso   1.000  O
  O92      1.0000 0.12120  0.06071  0.09270  Biso   1.000  O
  O93      1.0000 0.87620  0.40291  0.28940  Biso   1.000  O
  O94      1.0000 0.07880  0.22171  0.21430  Biso   1.000  O
  O95      1.0000 0.12050  0.06211  0.20250  Biso   1.000  O
  O96      1.0000 0.94810  0.35401  0.39580  Biso   1.000  O
  O97      1.0000 0.07610  0.17841  0.16700  Biso   1.000  O
  O98      1.0000 0.91940  0.28681  0.31510  Biso   1.000  O
  O99      1.0000 0.05010  0.10531  0.20150  Biso   1.000  O
  O100     1.0000 0.94740  0.36121  0.28680  Biso   1.000  O
  O101     1.0000 0.91890  0.73641  0.73290  Biso   1.000  O
  O102     1.0000 0.87780  0.58281  0.60500  Biso   1.000  O
  O103     1.0000 0.05110  0.87621  0.91200  Biso   1.000  O
  O104     1.0000 0.12120  0.91911  0.91130  Biso   1.000  O
  O105     1.0000 0.87620  0.57691  0.71460  Biso   1.000  O
  O106     1.0000 0.07880  0.75811  0.78970  Biso   1.000  O
  O107     1.0000 0.12050  0.91771  0.80150  Biso   1.000  O
  O108     1.0000 0.94810  0.62581  0.60820  Biso   1.000  O
  O109     1.0000 0.07610  0.80141  0.83700  Biso   1.000  O
  O110     1.0000 0.91940  0.69301  0.68890  Biso   1.000  O
  O111     1.0000 0.05010  0.87451  0.80250  Biso   1.000  O
  O112     1.0000 0.94740  0.61861  0.71720  Biso   1.000  O
  O113     1.0000 0.41890  0.72081  0.74850  Biso   1.000  O
  O114     1.0000 0.37780  0.59291  0.59490  Biso   1.000  O
  O115     1.0000 0.55110  0.89991  0.88830  Biso   1.000  O
  O116     1.0000 0.62120  0.89921  0.93120  Biso   1.000  O
  O117     1.0000 0.37620  0.70251  0.58900  Biso   1.000  O
  O118     1.0000 0.57880  0.77761  0.77020  Biso   1.000  O
  O119     1.0000 0.62050  0.78941  0.92980  Biso   1.000  O
  O120     1.0000 0.44810  0.59611  0.63790  Biso   1.000  O
  O121     1.0000 0.57610  0.82491  0.81350  Biso   1.000  O
  O122     1.0000 0.41940  0.67681  0.70510  Biso   1.000  O
  O123     1.0000 0.55010  0.79041  0.88660  Biso   1.000  O
  O124     1.0000 0.44740  0.70511  0.63070  Biso   1.000  O
  O125     1.0000 0.41890  0.25901  0.25550  Biso   1.000  O
  O126     1.0000 0.37780  0.38691  0.40910  Biso   1.000  O
  O127     1.0000 0.55110  0.07991  0.11570  Biso   1.000  O
  O128     1.0000 0.62120  0.08061  0.07280  Biso   1.000  O
  O129     1.0000 0.37620  0.27731  0.41500  Biso   1.000  O
  O130     1.0000 0.57880  0.20221  0.23380  Biso   1.000  O
  O131     1.0000 0.62050  0.19041  0.07420  Biso   1.000  O
  O132     1.0000 0.44810  0.38371  0.36610  Biso   1.000  O
  O133     1.0000 0.57610  0.15491  0.19050  Biso   1.000  O
  O134     1.0000 0.41940  0.30301  0.29890  Biso   1.000  O
  O135     1.0000 0.55010  0.18941  0.11740  Biso   1.000  O
  O136     1.0000 0.44740  0.27471  0.37330  Biso   1.000  O
  O137     1.0000 0.41890  0.74341  0.23290  Biso   1.000  O
  O138     1.0000 0.37780  0.89701  0.10500  Biso   1.000  O
  O139     1.0000 0.55110  0.60361  0.41200  Biso   1.000  O
  O140     1.0000 0.62120  0.56071  0.41130  Biso   1.000  O
  O141     1.0000 0.37620  0.90291  0.21460  Biso   1.000  O
  O142     1.0000 0.57880  0.72171  0.28970  Biso   1.000  O
  O143     1.0000 0.62050  0.56211  0.30150  Biso   1.000  O
  O144     1.0000 0.44810  0.85401  0.10820  Biso   1.000  O
  O145     1.0000 0.57610  0.67841  0.33700  Biso   1.000  O
  O146     1.0000 0.41940  0.78681  0.18890  Biso   1.000  O
  O147     1.0000 0.55010  0.60531  0.30250  Biso   1.000  O
  O148     1.0000 0.44740  0.86121  0.21720  Biso   1.000  O
  O149     1.0000 0.41890  0.23641  0.77110  Biso   1.000  O
  O150     1.0000 0.37780  0.08281  0.89900  Biso   1.000  O
  O151     1.0000 0.55110  0.37621  0.59200  Biso   1.000  O
  O152     1.0000 0.62120  0.41911  0.59270  Biso   1.000  O
  O153     1.0000 0.37620  0.07691  0.78940  Biso   1.000  O
  O154     1.0000 0.57880  0.25811  0.71430  Biso   1.000  O
  O155     1.0000 0.62050  0.41771  0.70250  Biso   1.000  O
  O156     1.0000 0.44810  0.12581  0.89580  Biso   1.000  O
  O157     1.0000 0.57610  0.30141  0.66700  Biso   1.000  O
  O158     1.0000 0.41940  0.19301  0.81510  Biso   1.000  O
  O159     1.0000 0.55010  0.37451  0.70150  Biso   1.000  O
  O160     1.0000 0.44740  0.11861  0.78680  Biso   1.000  O
  O161     1.0000 0.57930  0.75901  0.24850  Biso   1.000  O
  O162     1.0000 0.62040  0.88691  0.09490  Biso   1.000  O
  O163     1.0000 0.44710  0.57991  0.38830  Biso   1.000  O
  O164     1.0000 0.37700  0.58061  0.43120  Biso   1.000  O
  O165     1.0000 0.62200  0.77731  0.08900  Biso   1.000  O
  O166     1.0000 0.41940  0.70221  0.27020  Biso   1.000  O
  O167     1.0000 0.37770  0.69041  0.42980  Biso   1.000  O
  O168     1.0000 0.55010  0.88371  0.13790  Biso   1.000  O
  O169     1.0000 0.42210  0.65491  0.31350  Biso   1.000  O
  O170     1.0000 0.57880  0.80301  0.20510  Biso   1.000  O
  O171     1.0000 0.44810  0.68941  0.38660  Biso   1.000  O
  O172     1.0000 0.55080  0.77471  0.13070  Biso   1.000  O
  O173     1.0000 0.57930  0.22081  0.75550  Biso   1.000  O
  O174     1.0000 0.62040  0.09291  0.90910  Biso   1.000  O
  O175     1.0000 0.44710  0.39991  0.61570  Biso   1.000  O
  O176     1.0000 0.37700  0.39921  0.57280  Biso   1.000  O
  O177     1.0000 0.62200  0.20251  0.91500  Biso   1.000  O
  O178     1.0000 0.41940  0.27761  0.73380  Biso   1.000  O
  O179     1.0000 0.37770  0.28941  0.57420  Biso   1.000  O
  O180     1.0000 0.55010  0.09611  0.86610  Biso   1.000  O
  O181     1.0000 0.42210  0.32491  0.69050  Biso   1.000  O
  O182     1.0000 0.57880  0.17681  0.79890  Biso   1.000  O
  O183     1.0000 0.44810  0.29041  0.61740  Biso   1.000  O
  O184     1.0000 0.55080  0.20511  0.87330  Biso   1.000  O
  O185     1.0000 0.57930  0.73641  0.73290  Biso   1.000  O
  O186     1.0000 0.62040  0.58281  0.60500  Biso   1.000  O
  O187     1.0000 0.44710  0.87621  0.91200  Biso   1.000  O
  O188     1.0000 0.37700  0.91911  0.91130  Biso   1.000  O
  O189     1.0000 0.62200  0.57691  0.71460  Biso   1.000  O
  O190     1.0000 0.41940  0.75811  0.78970  Biso   1.000  O
  O191     1.0000 0.37770  0.91771  0.80150  Biso   1.000  O
  O192     1.0000 0.55010  0.62581  0.60820  Biso   1.000  O
  O193     1.0000 0.42210  0.80141  0.83700  Biso   1.000  O
  O194     1.0000 0.57880  0.69301  0.68890  Biso   1.000  O
  O195     1.0000 0.44810  0.87451  0.80250  Biso   1.000  O
  O196     1.0000 0.55080  0.61861  0.71720  Biso   1.000  O
  O197     1.0000 0.57930  0.24341  0.27110  Biso   1.000  O
  O198     1.0000 0.62040  0.39701  0.39900  Biso   1.000  O
  O199     1.0000 0.44710  0.10361  0.09200  Biso   1.000  O
  O200     1.0000 0.37700  0.06071  0.09270  Biso   1.000  O
  O201     1.0000 0.62200  0.40291  0.28940  Biso   1.000  O
  O202     1.0000 0.41940  0.22171  0.21430  Biso   1.000  O
  O203     1.0000 0.37770  0.06211  0.20250  Biso   1.000  O
  O204     1.0000 0.55010  0.35401  0.39580  Biso   1.000  O
  O205     1.0000 0.42210  0.17841  0.16700  Biso   1.000  O
  O206     1.0000 0.57880  0.28681  0.31510  Biso   1.000  O
  O207     1.0000 0.44810  0.10531  0.20150  Biso   1.000  O
  O208     1.0000 0.55080  0.36121  0.28680  Biso   1.000  O
  O209     1.0000 0.04609  0.26449  0.26734  Biso   1.000  O
  O210     1.0000 0.12898  0.33236  0.41662  Biso   1.000  O
  O211     1.0000 0.04359  0.32949  0.36510  Biso   1.000  O
  O212     1.0000 0.10687  0.36410  0.40179  Biso   1.000  O
  O213     1.0000 0.95509  0.13435  0.12054  Biso   1.000  O
  O214     1.0000 0.86986  0.13588  0.06887  Biso   1.000  O
  O215     1.0000 0.93334  0.10227  0.10733  Biso   1.000  O
  O216     1.0000 0.89122  0.10267  0.08165  Biso   1.000  O
  O217     1.0000 0.10752  0.29901  0.40537  Biso   1.000  O
  O218     1.0000 0.95228  0.19719  0.22133  Biso   1.000  O
  O219     1.0000 0.89150  0.16800  0.08240  Biso   1.000  O
  O220     1.0000 0.06445  0.36209  0.37605  Biso   1.000  O
  O221     1.0000 0.95362  0.16913  0.19449  Biso   1.000  O
  O222     1.0000 0.04593  0.29077  0.29343  Biso   1.000  O
  O223     1.0000 0.93391  0.16737  0.10831  Biso   1.000  O
  O224     1.0000 0.06520  0.29746  0.38027  Biso   1.000  O
  O225     1.0000 0.17393  0.33453  0.44455  Biso   1.000  O
  O226     1.0000 0.82462  0.13629  0.04150  Biso   1.000  O
  O227     1.0000 0.04609  0.71533  0.73666  Biso   1.000  O
  O228     1.0000 0.12898  0.64746  0.58738  Biso   1.000  O
  O229     1.0000 0.04359  0.65033  0.63890  Biso   1.000  O
  O230     1.0000 0.10687  0.61572  0.60221  Biso   1.000  O
  O231     1.0000 0.95509  0.84547  0.88346  Biso   1.000  O
  O232     1.0000 0.86986  0.84394  0.93513  Biso   1.000  O
  O233     1.0000 0.93334  0.87755  0.89667  Biso   1.000  O
  O234     1.0000 0.89122  0.87715  0.92235  Biso   1.000  O
  O235     1.0000 0.10752  0.68081  0.59863  Biso   1.000  O
  O236     1.0000 0.95228  0.78263  0.78267  Biso   1.000  O
  O237     1.0000 0.89150  0.81182  0.92160  Biso   1.000  O
  O238     1.0000 0.06445  0.61773  0.62795  Biso   1.000  O
  O239     1.0000 0.95362  0.81069  0.80951  Biso   1.000  O
  O240     1.0000 0.04593  0.68905  0.71057  Biso   1.000  O
  O241     1.0000 0.93391  0.81245  0.89569  Biso   1.000  O
  O242     1.0000 0.06520  0.68236  0.62373  Biso   1.000  O
  O243     1.0000 0.17393  0.64529  0.55945  Biso   1.000  O
  O244     1.0000 0.82462  0.84353  0.96250  Biso   1.000  O
  O245     1.0000 0.04609  0.22457  0.77658  Biso   1.000  O
  O246     1.0000 0.12898  0.07529  0.84445  Biso   1.000  O
  O247     1.0000 0.04359  0.12681  0.84158  Biso   1.000  O
  O248     1.0000 0.10687  0.09012  0.87619  Biso   1.000  O
  O249     1.0000 0.95509  0.37137  0.64644  Biso   1.000  O
  O250     1.0000 0.86986  0.42304  0.64797  Biso   1.000  O
  O251     1.0000 0.93334  0.38458  0.61436  Biso   1.000  O
  O252     1.0000 0.89122  0.41026  0.61476  Biso   1.000  O
  O253     1.0000 0.10752  0.08654  0.81110  Biso   1.000  O
  O254     1.0000 0.95228  0.27058  0.70928  Biso   1.000  O
  O255     1.0000 0.89150  0.40951  0.68009  Biso   1.000  O
  O256     1.0000 0.06445  0.11586  0.87418  Biso   1.000  O
  O257     1.0000 0.95362  0.29742  0.68122  Biso   1.000  O
  O258     1.0000 0.04593  0.19848  0.80286  Biso   1.000  O
  O259     1.0000 0.93391  0.38360  0.67946  Biso   1.000  O
  O260     1.0000 0.06520  0.11164  0.80955  Biso   1.000  O
  O261     1.0000 0.17393  0.04736  0.84662  Biso   1.000  O
  O262     1.0000 0.82462  0.45041  0.64838  Biso   1.000  O
  O263     1.0000 0.04609  0.75525  0.22742  Biso   1.000  O
  O264     1.0000 0.12898  0.90453  0.15955  Biso   1.000  O
  O265     1.0000 0.04359  0.85301  0.16242  Biso   1.000  O
  O266     1.0000 0.10687  0.88970  0.12781  Biso   1.000  O
  O267     1.0000 0.95509  0.60845  0.35756  Biso   1.000  O
  O268     1.0000 0.86986  0.55678  0.35603  Biso   1.000  O
  O269     1.0000 0.93334  0.59524  0.38964  Biso   1.000  O
  O270     1.0000 0.89122  0.56956  0.38924  Biso   1.000  O
  O271     1.0000 0.10752  0.89328  0.19290  Biso   1.000  O
  O272     1.0000 0.95228  0.70924  0.29472  Biso   1.000  O
  O273     1.0000 0.89150  0.57031  0.32391  Biso   1.000  O
  O274     1.0000 0.06445  0.86396  0.12982  Biso   1.000  O
  O275     1.0000 0.95362  0.68240  0.32278  Biso   1.000  O
  O276     1.0000 0.04593  0.78134  0.20114  Biso   1.000  O
  O277     1.0000 0.93391  0.59622  0.32454  Biso   1.000  O
  O278     1.0000 0.06520  0.86818  0.19445  Biso   1.000  O
  O279     1.0000 0.17393  0.93246  0.15738  Biso   1.000  O
  O280     1.0000 0.82462  0.52941  0.35562  Biso   1.000  O
  O281     1.0000 0.95211  0.21533  0.76734  Biso   1.000  O
  O282     1.0000 0.86922  0.14746  0.91662  Biso   1.000  O
  O283     1.0000 0.95461  0.15033  0.86510  Biso   1.000  O
  O284     1.0000 0.89133  0.11572  0.90179  Biso   1.000  O
  O285     1.0000 0.04311  0.34547  0.62054  Biso   1.000  O
  O286     1.0000 0.12834  0.34394  0.56887  Biso   1.000  O
  O287     1.0000 0.06486  0.37755  0.60733  Biso   1.000  O
  O288     1.0000 0.10698  0.37715  0.58165  Biso   1.000  O
  O289     1.0000 0.89068  0.18081  0.90537  Biso   1.000  O
  O290     1.0000 0.04592  0.28263  0.72133  Biso   1.000  O
  O291     1.0000 0.10670  0.31182  0.58240  Biso   1.000  O
  O292     1.0000 0.93375  0.11773  0.87605  Biso   1.000  O
  O293     1.0000 0.04458  0.31069  0.69449  Biso   1.000  O
  O294     1.0000 0.95227  0.18905  0.79343  Biso   1.000  O
  O295     1.0000 0.06429  0.31245  0.60831  Biso   1.000  O
  O296     1.0000 0.93300  0.18236  0.88027  Biso   1.000  O
  O297     1.0000 0.82427  0.14529  0.94455  Biso   1.000  O
  O298     1.0000 0.17358  0.34353  0.54150  Biso   1.000  O
  O299     1.0000 0.95211  0.76449  0.23666  Biso   1.000  O
  O300     1.0000 0.86922  0.83236  0.08738  Biso   1.000  O
  O301     1.0000 0.95461  0.82949  0.13890  Biso   1.000  O
  O302     1.0000 0.89133  0.86410  0.10221  Biso   1.000  O
  O303     1.0000 0.04311  0.63435  0.38346  Biso   1.000  O
  O304     1.0000 0.12834  0.63588  0.43513  Biso   1.000  O
  O305     1.0000 0.06486  0.60227  0.39667  Biso   1.000  O
  O306     1.0000 0.10698  0.60267  0.42235  Biso   1.000  O
  O307     1.0000 0.89068  0.79901  0.09863  Biso   1.000  O
  O308     1.0000 0.04592  0.69719  0.28267  Biso   1.000  O
  O309     1.0000 0.10670  0.66800  0.42160  Biso   1.000  O
  O310     1.0000 0.93375  0.86209  0.12795  Biso   1.000  O
  O311     1.0000 0.04458  0.66913  0.30951  Biso   1.000  O
  O312     1.0000 0.95227  0.79077  0.21057  Biso   1.000  O
  O313     1.0000 0.06429  0.66737  0.39569  Biso   1.000  O
  O314     1.0000 0.93300  0.79746  0.12373  Biso   1.000  O
  O315     1.0000 0.82427  0.83453  0.05945  Biso   1.000  O
  O316     1.0000 0.17358  0.63629  0.46250  Biso   1.000  O
  O317     1.0000 0.95211  0.25525  0.27658  Biso   1.000  O
  O318     1.0000 0.86922  0.40453  0.34445  Biso   1.000  O
  O319     1.0000 0.95461  0.35301  0.34158  Biso   1.000  O
  O320     1.0000 0.89133  0.38970  0.37619  Biso   1.000  O
  O321     1.0000 0.04311  0.10845  0.14644  Biso   1.000  O
  O322     1.0000 0.12834  0.05678  0.14797  Biso   1.000  O
  O323     1.0000 0.06486  0.09524  0.11436  Biso   1.000  O
  O324     1.0000 0.10698  0.06956  0.11476  Biso   1.000  O
  O325     1.0000 0.89068  0.39328  0.31110  Biso   1.000  O
  O326     1.0000 0.04592  0.20924  0.20928  Biso   1.000  O
  O327     1.0000 0.10670  0.07031  0.18009  Biso   1.000  O
  O328     1.0000 0.93375  0.36396  0.37418  Biso   1.000  O
  O329     1.0000 0.04458  0.18240  0.18122  Biso   1.000  O
  O330     1.0000 0.95227  0.28134  0.30286  Biso   1.000  O
  O331     1.0000 0.06429  0.09622  0.17946  Biso   1.000  O
  O332     1.0000 0.93300  0.36818  0.30955  Biso   1.000  O
  O333     1.0000 0.82427  0.43246  0.34662  Biso   1.000  O
  O334     1.0000 0.17358  0.02941  0.14838  Biso   1.000  O
  O335     1.0000 0.95211  0.72457  0.72742  Biso   1.000  O
  O336     1.0000 0.86922  0.57529  0.65955  Biso   1.000  O
  O337     1.0000 0.95461  0.62681  0.66242  Biso   1.000  O
  O338     1.0000 0.89133  0.59012  0.62781  Biso   1.000  O
  O339     1.0000 0.04311  0.87137  0.85756  Biso   1.000  O
  O340     1.0000 0.12834  0.92304  0.85603  Biso   1.000  O
  O341     1.0000 0.06486  0.88458  0.88964  Biso   1.000  O
  O342     1.0000 0.10698  0.91026  0.88924  Biso   1.000  O
  O343     1.0000 0.89068  0.58654  0.69290  Biso   1.000  O
  O344     1.0000 0.04592  0.77058  0.79472  Biso   1.000  O
  O345     1.0000 0.10670  0.90951  0.82391  Biso   1.000  O
  O346     1.0000 0.93375  0.61586  0.62982  Biso   1.000  O
  O347     1.0000 0.04458  0.79742  0.82278  Biso   1.000  O
  O348     1.0000 0.95227  0.69848  0.70114  Biso   1.000  O
  O349     1.0000 0.06429  0.88360  0.82454  Biso   1.000  O
  O350     1.0000 0.93300  0.61164  0.69445  Biso   1.000  O
  O351     1.0000 0.82427  0.54736  0.65738  Biso   1.000  O
  O352     1.0000 0.17358  0.95041  0.85562  Biso   1.000  O
  O353     1.0000 0.45211  0.71533  0.73666  Biso   1.000  O
  O354     1.0000 0.36922  0.64746  0.58738  Biso   1.000  O
  O355     1.0000 0.45461  0.65033  0.63890  Biso   1.000  O
  O356     1.0000 0.39133  0.61572  0.60221  Biso   1.000  O
  O357     1.0000 0.54311  0.84547  0.88346  Biso   1.000  O
  O358     1.0000 0.62834  0.84394  0.93513  Biso   1.000  O
  O359     1.0000 0.56486  0.87755  0.89667  Biso   1.000  O
  O360     1.0000 0.60698  0.87715  0.92235  Biso   1.000  O
  O361     1.0000 0.39068  0.68081  0.59863  Biso   1.000  O
  O362     1.0000 0.54592  0.78263  0.78267  Biso   1.000  O
  O363     1.0000 0.60670  0.81182  0.92160  Biso   1.000  O
  O364     1.0000 0.43375  0.61773  0.62795  Biso   1.000  O
  O365     1.0000 0.54458  0.81069  0.80951  Biso   1.000  O
  O366     1.0000 0.45227  0.68905  0.71057  Biso   1.000  O
  O367     1.0000 0.56429  0.81245  0.89569  Biso   1.000  O
  O368     1.0000 0.43300  0.68236  0.62373  Biso   1.000  O
  O369     1.0000 0.32427  0.64529  0.55945  Biso   1.000  O
  O370     1.0000 0.67358  0.84353  0.96250  Biso   1.000  O
  O371     1.0000 0.45211  0.26449  0.26734  Biso   1.000  O
  O372     1.0000 0.36922  0.33236  0.41662  Biso   1.000  O
  O373     1.0000 0.45461  0.32949  0.36510  Biso   1.000  O
  O374     1.0000 0.39133  0.36410  0.40179  Biso   1.000  O
  O375     1.0000 0.54311  0.13435  0.12054  Biso   1.000  O
  O376     1.0000 0.62834  0.13588  0.06887  Biso   1.000  O
  O377     1.0000 0.56486  0.10227  0.10733  Biso   1.000  O
  O378     1.0000 0.60698  0.10267  0.08165  Biso   1.000  O
  O379     1.0000 0.39068  0.29901  0.40537  Biso   1.000  O
  O380     1.0000 0.54592  0.19719  0.22133  Biso   1.000  O
  O381     1.0000 0.60670  0.16800  0.08240  Biso   1.000  O
  O382     1.0000 0.43375  0.36209  0.37605  Biso   1.000  O
  O383     1.0000 0.54458  0.16913  0.19449  Biso   1.000  O
  O384     1.0000 0.45227  0.29077  0.29343  Biso   1.000  O
  O385     1.0000 0.56429  0.16737  0.10831  Biso   1.000  O
  O386     1.0000 0.43300  0.29746  0.38027  Biso   1.000  O
  O387     1.0000 0.32427  0.33453  0.44455  Biso   1.000  O
  O388     1.0000 0.67358  0.13629  0.04150  Biso   1.000  O
  O389     1.0000 0.45211  0.75525  0.22742  Biso   1.000  O
  O390     1.0000 0.36922  0.90453  0.15955  Biso   1.000  O
  O391     1.0000 0.45461  0.85301  0.16242  Biso   1.000  O
  O392     1.0000 0.39133  0.88970  0.12781  Biso   1.000  O
  O393     1.0000 0.54311  0.60845  0.35756  Biso   1.000  O
  O394     1.0000 0.62834  0.55678  0.35603  Biso   1.000  O
  O395     1.0000 0.56486  0.59524  0.38964  Biso   1.000  O
  O396     1.0000 0.60698  0.56956  0.38924  Biso   1.000  O
  O397     1.0000 0.39068  0.89328  0.19290  Biso   1.000  O
  O398     1.0000 0.54592  0.70924  0.29472  Biso   1.000  O
  O399     1.0000 0.60670  0.57031  0.32391  Biso   1.000  O
  O400     1.0000 0.43375  0.86396  0.12982  Biso   1.000  O
  O401     1.0000 0.54458  0.68240  0.32278  Biso   1.000  O
  O402     1.0000 0.45227  0.78134  0.20114  Biso   1.000  O
  O403     1.0000 0.56429  0.59622  0.32454  Biso   1.000  O
  O404     1.0000 0.43300  0.86818  0.19445  Biso   1.000  O
  O405     1.0000 0.32427  0.93246  0.15738  Biso   1.000  O
  O406     1.0000 0.67358  0.52941  0.35562  Biso   1.000  O
  O407     1.0000 0.45211  0.22457  0.77658  Biso   1.000  O
  O408     1.0000 0.36922  0.07529  0.84445  Biso   1.000  O
  O409     1.0000 0.45461  0.12681  0.84158  Biso   1.000  O
  O410     1.0000 0.39133  0.09012  0.87619  Biso   1.000  O
  O411     1.0000 0.54311  0.37137  0.64644  Biso   1.000  O
  O412     1.0000 0.62834  0.42304  0.64797  Biso   1.000  O
  O413     1.0000 0.56486  0.38458  0.61436  Biso   1.000  O
  O414     1.0000 0.60698  0.41026  0.61476  Biso   1.000  O
  O415     1.0000 0.39068  0.08654  0.81110  Biso   1.000  O
  O416     1.0000 0.54592  0.27058  0.70928  Biso   1.000  O
  O417     1.0000 0.60670  0.40951  0.68009  Biso   1.000  O
  O418     1.0000 0.43375  0.11586  0.87418  Biso   1.000  O
  O419     1.0000 0.54458  0.29742  0.68122  Biso   1.000  O
  O420     1.0000 0.45227  0.19848  0.80286  Biso   1.000  O
  O421     1.0000 0.56429  0.38360  0.67946  Biso   1.000  O
  O422     1.0000 0.43300  0.11164  0.80955  Biso   1.000  O
  O423     1.0000 0.32427  0.04736  0.84662  Biso   1.000  O
  O424     1.0000 0.67358  0.45041  0.64838  Biso   1.000  O
  O425     1.0000 0.54609  0.76449  0.23666  Biso   1.000  O
  O426     1.0000 0.62898  0.83236  0.08738  Biso   1.000  O
  O427     1.0000 0.54359  0.82949  0.13890  Biso   1.000  O
  O428     1.0000 0.60687  0.86410  0.10221  Biso   1.000  O
  O429     1.0000 0.45509  0.63435  0.38346  Biso   1.000  O
  O430     1.0000 0.36986  0.63588  0.43513  Biso   1.000  O
  O431     1.0000 0.43334  0.60227  0.39667  Biso   1.000  O
  O432     1.0000 0.39122  0.60267  0.42235  Biso   1.000  O
  O433     1.0000 0.60752  0.79901  0.09863  Biso   1.000  O
  O434     1.0000 0.45228  0.69719  0.28267  Biso   1.000  O
  O435     1.0000 0.39150  0.66800  0.42160  Biso   1.000  O
  O436     1.0000 0.56445  0.86209  0.12795  Biso   1.000  O
  O437     1.0000 0.45362  0.66913  0.30951  Biso   1.000  O
  O438     1.0000 0.54593  0.79077  0.21057  Biso   1.000  O
  O439     1.0000 0.43391  0.66737  0.39569  Biso   1.000  O
  O440     1.0000 0.56520  0.79746  0.12373  Biso   1.000  O
  O441     1.0000 0.67393  0.83453  0.05945  Biso   1.000  O
  O442     1.0000 0.32462  0.63629  0.46250  Biso   1.000  O
  O443     1.0000 0.54609  0.21533  0.76734  Biso   1.000  O
  O444     1.0000 0.62898  0.14746  0.91662  Biso   1.000  O
  O445     1.0000 0.54359  0.15033  0.86510  Biso   1.000  O
  O446     1.0000 0.60687  0.11572  0.90179  Biso   1.000  O
  O447     1.0000 0.45509  0.34547  0.62054  Biso   1.000  O
  O448     1.0000 0.36986  0.34394  0.56887  Biso   1.000  O
  O449     1.0000 0.43334  0.37755  0.60733  Biso   1.000  O
  O450     1.0000 0.39122  0.37715  0.58165  Biso   1.000  O
  O451     1.0000 0.60752  0.18081  0.90537  Biso   1.000  O
  O452     1.0000 0.45228  0.28263  0.72133  Biso   1.000  O
  O453     1.0000 0.39150  0.31182  0.58240  Biso   1.000  O
  O454     1.0000 0.56445  0.11773  0.87605  Biso   1.000  O
  O455     1.0000 0.45362  0.31069  0.69449  Biso   1.000  O
  O456     1.0000 0.54593  0.18905  0.79343  Biso   1.000  O
  O457     1.0000 0.43391  0.31245  0.60831  Biso   1.000  O
  O458     1.0000 0.56520  0.18236  0.88027  Biso   1.000  O
  O459     1.0000 0.67393  0.14529  0.94455  Biso   1.000  O
  O460     1.0000 0.32462  0.34353  0.54150  Biso   1.000  O
  O461     1.0000 0.54609  0.72457  0.72742  Biso   1.000  O
  O462     1.0000 0.62898  0.57529  0.65955  Biso   1.000  O
  O463     1.0000 0.54359  0.62681  0.66242  Biso   1.000  O
  O464     1.0000 0.60687  0.59012  0.62781  Biso   1.000  O
  O465     1.0000 0.45509  0.87137  0.85756  Biso   1.000  O
  O466     1.0000 0.36986  0.92304  0.85603  Biso   1.000  O
  O467     1.0000 0.43334  0.88458  0.88964  Biso   1.000  O
  O468     1.0000 0.39122  0.91026  0.88924  Biso   1.000  O
  O469     1.0000 0.60752  0.58654  0.69290  Biso   1.000  O
  O470     1.0000 0.45228  0.77058  0.79472  Biso   1.000  O
  O471     1.0000 0.39150  0.90951  0.82391  Biso   1.000  O
  O472     1.0000 0.56445  0.61586  0.62982  Biso   1.000  O
  O473     1.0000 0.45362  0.79742  0.82278  Biso   1.000  O
  O474     1.0000 0.54593  0.69848  0.70114  Biso   1.000  O
  O475     1.0000 0.43391  0.88360  0.82454  Biso   1.000  O
  O476     1.0000 0.56520  0.61164  0.69445  Biso   1.000  O
  O477     1.0000 0.67393  0.54736  0.65738  Biso   1.000  O
  O478     1.0000 0.32462  0.95041  0.85562  Biso   1.000  O
  O479     1.0000 0.54609  0.25525  0.27658  Biso   1.000  O
  O480     1.0000 0.62898  0.40453  0.34445  Biso   1.000  O
  O481     1.0000 0.54359  0.35301  0.34158  Biso   1.000  O
  O482     1.0000 0.60687  0.38970  0.37619  Biso   1.000  O
  O483     1.0000 0.45509  0.10845  0.14644  Biso   1.000  O
  O484     1.0000 0.36986  0.05678  0.14797  Biso   1.000  O
  O485     1.0000 0.43334  0.09524  0.11436  Biso   1.000  O
  O486     1.0000 0.39122  0.06956  0.11476  Biso   1.000  O
  O487     1.0000 0.60752  0.39328  0.31110  Biso   1.000  O
  O488     1.0000 0.45228  0.20924  0.20928  Biso   1.000  O
  O489     1.0000 0.39150  0.07031  0.18009  Biso   1.000  O
  O490     1.0000 0.56445  0.36396  0.37418  Biso   1.000  O
  O491     1.0000 0.45362  0.18240  0.18122  Biso   1.000  O
  O492     1.0000 0.54593  0.28134  0.30286  Biso   1.000  O
  O493     1.0000 0.43391  0.09622  0.17946  Biso   1.000  O
  O494     1.0000 0.56520  0.36818  0.30955  Biso   1.000  O
  O495     1.0000 0.67393  0.43246  0.34662  Biso   1.000  O
  O496     1.0000 0.32462  0.02941  0.14838  Biso   1.000  O
  O497     1.0000 0.99910  0.16264  0.17473  Biso   1.000  O
  O498     1.0000 0.99910  0.21688  0.22897  Biso   1.000  O
  O499     1.0000 0.99910  0.24534  0.25743  Biso   1.000  O
  O500     1.0000 0.99910  0.29993  0.31202  Biso   1.000  O
  O501     1.0000 0.99910  0.81718  0.82927  Biso   1.000  O
  O502     1.0000 0.99910  0.76294  0.77503  Biso   1.000  O
  O503     1.0000 0.99910  0.73448  0.74657  Biso   1.000  O
  O504     1.0000 0.99910  0.67989  0.69198  Biso   1.000  O
  O505     1.0000 0.99910  0.31718  0.67473  Biso   1.000  O
  O506     1.0000 0.99910  0.26294  0.72897  Biso   1.000  O
  O507     1.0000 0.99910  0.23448  0.75743  Biso   1.000  O
  O508     1.0000 0.99910  0.17989  0.81202  Biso   1.000  O
  O509     1.0000 0.99910  0.66264  0.32927  Biso   1.000  O
  O510     1.0000 0.99910  0.71688  0.27503  Biso   1.000  O
  O511     1.0000 0.99910  0.74534  0.24657  Biso   1.000  O
  O512     1.0000 0.99910  0.79993  0.19198  Biso   1.000  O
  O513     1.0000 0.49910  0.81718  0.82927  Biso   1.000  O
  O514     1.0000 0.49910  0.76294  0.77503  Biso   1.000  O
  O515     1.0000 0.49910  0.73448  0.74657  Biso   1.000  O
  O516     1.0000 0.49910  0.67989  0.69198  Biso   1.000  O
  O517     1.0000 0.49910  0.16264  0.17473  Biso   1.000  O
  O518     1.0000 0.49910  0.21688  0.22897  Biso   1.000  O
  O519     1.0000 0.49910  0.24534  0.25743  Biso   1.000  O
  O520     1.0000 0.49910  0.29993  0.31202  Biso   1.000  O
  O521     1.0000 0.49910  0.66264  0.32927  Biso   1.000  O
  O522     1.0000 0.49910  0.71688  0.27503  Biso   1.000  O
  O523     1.0000 0.49910  0.74534  0.24657  Biso   1.000  O
  O524     1.0000 0.49910  0.79993  0.19198  Biso   1.000  O
  O525     1.0000 0.49910  0.31718  0.67473  Biso   1.000  O
  O526     1.0000 0.49910  0.26294  0.72897  Biso   1.000  O
  O527     1.0000 0.49910  0.23448  0.75743  Biso   1.000  O
  O528     1.0000 0.49910  0.17989  0.81202  Biso   1.000  O
  O529     1.0000 0.99910  0.13475  0.14684  Biso   1.000  O
  O530     1.0000 0.99910  0.32742  0.33951  Biso   1.000  O
  O531     1.0000 0.99910  0.84507  0.85716  Biso   1.000  O
  O532     1.0000 0.99910  0.65240  0.66449  Biso   1.000  O
  O533     1.0000 0.99910  0.34507  0.64684  Biso   1.000  O
  O534     1.0000 0.99910  0.15240  0.83951  Biso   1.000  O
  O535     1.0000 0.99910  0.63475  0.35716  Biso   1.000  O
  O536     1.0000 0.99910  0.82742  0.16449  Biso   1.000  O
  O537     1.0000 0.49910  0.84507  0.85716  Biso   1.000  O
  O538     1.0000 0.49910  0.65240  0.66449  Biso   1.000  O
  O539     1.0000 0.49910  0.13475  0.14684  Biso   1.000  O
  O540     1.0000 0.49910  0.32742  0.33951  Biso   1.000  O
  O541     1.0000 0.49910  0.63475  0.35716  Biso   1.000  O
  O542     1.0000 0.49910  0.82742  0.16449  Biso   1.000  O
  O543     1.0000 0.49910  0.34507  0.64684  Biso   1.000  O
  O544     1.0000 0.49910  0.15240  0.83951  Biso   1.000  O
  O545     1.0000 0.19151  0.30454  0.45730  Biso   1.000  O
  O546     1.0000 0.80699  0.10677  0.02882  Biso   1.000  O
  O547     1.0000 0.19112  0.36551  0.45384  Biso   1.000  O
  O548     1.0000 0.80679  0.16794  0.03244  Biso   1.000  O
  O549     1.0000 0.19151  0.67528  0.54670  Biso   1.000  O
  O550     1.0000 0.80699  0.87305  0.97518  Biso   1.000  O
  O551     1.0000 0.19112  0.61431  0.55016  Biso   1.000  O
  O552     1.0000 0.80679  0.81188  0.97156  Biso   1.000  O
  O553     1.0000 0.19151  0.03461  0.81663  Biso   1.000  O
  O554     1.0000 0.80699  0.46309  0.61886  Biso   1.000  O
  O555     1.0000 0.19112  0.03807  0.87760  Biso   1.000  O
  O556     1.0000 0.80679  0.45947  0.68003  Biso   1.000  O
  O557     1.0000 0.19151  0.94521  0.18737  Biso   1.000  O
  O558     1.0000 0.80699  0.51673  0.38514  Biso   1.000  O
  O559     1.0000 0.19112  0.94175  0.12640  Biso   1.000  O
  O560     1.0000 0.80679  0.52035  0.32397  Biso   1.000  O
  O561     1.0000 0.80669  0.17528  0.95730  Biso   1.000  O
  O562     1.0000 0.19121  0.37305  0.52882  Biso   1.000  O
  O563     1.0000 0.80708  0.11431  0.95384  Biso   1.000  O
  O564     1.0000 0.19141  0.31188  0.53244  Biso   1.000  O
  O565     1.0000 0.80669  0.80454  0.04670  Biso   1.000  O
  O566     1.0000 0.19121  0.60677  0.47518  Biso   1.000  O
  O567     1.0000 0.80708  0.86551  0.05016  Biso   1.000  O
  O568     1.0000 0.19141  0.66794  0.47156  Biso   1.000  O
  O569     1.0000 0.80669  0.44521  0.31663  Biso   1.000  O
  O570     1.0000 0.19121  0.01673  0.11886  Biso   1.000  O
  O571     1.0000 0.80708  0.44175  0.37760  Biso   1.000  O
  O572     1.0000 0.19141  0.02035  0.18003  Biso   1.000  O
  O573     1.0000 0.80669  0.53461  0.68737  Biso   1.000  O
  O574     1.0000 0.19121  0.96309  0.88514  Biso   1.000  O
  O575     1.0000 0.80708  0.53807  0.62640  Biso   1.000  O
  O576     1.0000 0.19141  0.95947  0.82397  Biso   1.000  O
  O577     1.0000 0.30669  0.67528  0.54670  Biso   1.000  O
  O578     1.0000 0.69121  0.87305  0.97518  Biso   1.000  O
  O579     1.0000 0.30708  0.61431  0.55016  Biso   1.000  O
  O580     1.0000 0.69141  0.81188  0.97156  Biso   1.000  O
  O581     1.0000 0.30669  0.30454  0.45730  Biso   1.000  O
  O582     1.0000 0.69121  0.10677  0.02882  Biso   1.000  O
  O583     1.0000 0.30708  0.36551  0.45384  Biso   1.000  O
  O584     1.0000 0.69141  0.16794  0.03244  Biso   1.000  O
  O585     1.0000 0.30669  0.94521  0.18737  Biso   1.000  O
  O586     1.0000 0.69121  0.51673  0.38514  Biso   1.000  O
  O587     1.0000 0.30708  0.94175  0.12640  Biso   1.000  O
  O588     1.0000 0.69141  0.52035  0.32397  Biso   1.000  O
  O589     1.0000 0.30669  0.03461  0.81663  Biso   1.000  O
  O590     1.0000 0.69121  0.46309  0.61886  Biso   1.000  O
  O591     1.0000 0.30708  0.03807  0.87760  Biso   1.000  O
  O592     1.0000 0.69141  0.45947  0.68003  Biso   1.000  O
  O593     1.0000 0.69151  0.80454  0.04670  Biso   1.000  O
  O594     1.0000 0.30699  0.60677  0.47518  Biso   1.000  O
  O595     1.0000 0.69112  0.86551  0.05016  Biso   1.000  O
  O596     1.0000 0.30679  0.66794  0.47156  Biso   1.000  O
  O597     1.0000 0.69151  0.17528  0.95730  Biso   1.000  O
  O598     1.0000 0.30699  0.37305  0.52882  Biso   1.000  O
  O599     1.0000 0.69112  0.11431  0.95384  Biso   1.000  O
  O600     1.0000 0.30679  0.31188  0.53244  Biso   1.000  O
  O601     1.0000 0.69151  0.53461  0.68737  Biso   1.000  O
  O602     1.0000 0.30699  0.96309  0.88514  Biso   1.000  O
  O603     1.0000 0.69112  0.53807  0.62640  Biso   1.000  O
  O604     1.0000 0.30679  0.95947  0.82397  Biso   1.000  O
  O605     1.0000 0.69151  0.44521  0.31663  Biso   1.000  O
  O606     1.0000 0.30699  0.01673  0.11886  Biso   1.000  O
  O607     1.0000 0.69112  0.44175  0.37760  Biso   1.000  O
