data_image0
_cell_length_a       30.9492
_cell_length_b       30.9492
_cell_length_c       45.9136
_cell_angle_alpha    70.3035
_cell_angle_beta     70.3035
_cell_angle_gamma    89.9999

_symmetry_space_group_name_H-M    "P 1"
_symmetry_int_tables_number       1

loop_
  _symmetry_equiv_pos_as_xyz
  'x, y, z'

loop_
  _atom_site_label
  _atom_site_occupancy
  _atom_site_fract_x
  _atom_site_fract_y
  _atom_site_fract_z
  _atom_site_thermal_displace_type
  _atom_site_B_iso_or_equiv
  _atom_site_type_symbol
  Cu1      1.0000 0.63888  0.08158  0.78024  Biso   1.000  Cu
  Cu2      1.0000 0.58088  0.13818  0.78024  Biso   1.000  Cu
  Cu3      1.0000 0.83158  0.83088  0.28024  Biso   1.000  Cu
  Cu4      1.0000 0.88818  0.88888  0.28024  Biso   1.000  Cu
  Cu5      1.0000 0.16912  0.16842  0.71976  Biso   1.000  Cu
  Cu6      1.0000 0.11112  0.11182  0.71976  Biso   1.000  Cu
  Cu7      1.0000 0.86182  0.41912  0.21976  Biso   1.000  Cu
  Cu8      1.0000 0.91842  0.36112  0.21976  Biso   1.000  Cu
  H1       1.0000 0.71320  0.12650  0.88800  Biso   1.000  H
  H2       1.0000 0.69130  0.10330  0.85140  Biso   1.000  H
  H3       1.0000 0.59680  0.19230  0.85240  Biso   1.000  H
  H4       1.0000 0.61880  0.21570  0.88880  Biso   1.000  H
  H5       1.0000 0.92920  0.15110  0.83540  Biso   1.000  H
  H6       1.0000 0.98190  0.13360  0.79260  Biso   1.000  H
  H7       1.0000 0.08500  0.20520  0.79840  Biso   1.000  H
  H8       1.0000 0.03230  0.22280  0.84120  Biso   1.000  H
  H9       1.0000 0.67250  0.20070  0.97380  Biso   1.000  H
  H10      1.0000 0.80780  0.18440  0.89880  Biso   1.000  H
  H11      1.0000 0.90960  0.21870  0.92580  Biso   1.000  H
  H12      1.0000 0.85470  0.23240  0.97040  Biso   1.000  H
  H13      1.0000 0.74250  0.16300  0.91020  Biso   1.000  H
  H14      1.0000 0.66250  0.20780  0.92580  Biso   1.000  H
  H15      1.0000 0.88730  0.17570  0.86640  Biso   1.000  H
  H16      1.0000 0.95600  0.21840  0.88040  Biso   1.000  H
  H17      1.0000 0.39880  0.98550  0.88800  Biso   1.000  H
  H18      1.0000 0.45730  0.04530  0.85140  Biso   1.000  H
  H19      1.0000 0.55080  0.95530  0.85240  Biso   1.000  H
  H20      1.0000 0.49240  0.89550  0.88880  Biso   1.000  H
  H21      1.0000 0.23540  0.01350  0.83540  Biso   1.000  H
  H22      1.0000 0.22550  0.07380  0.79260  Biso   1.000  H
  H23      1.0000 0.11660  0.99640  0.79840  Biso   1.000  H
  H24      1.0000 0.12650  0.93600  0.84120  Biso   1.000  H
  H25      1.0000 0.35370  0.82550  0.97380  Biso   1.000  H
  H26      1.0000 0.29340  0.91680  0.89880  Biso   1.000  H
  H27      1.0000 0.16460  0.85550  0.92580  Biso   1.000  H
  H28      1.0000 0.17490  0.79720  0.97040  Biso   1.000  H
  H29      1.0000 0.34730  0.92680  0.91020  Biso   1.000  H
  H30      1.0000 0.41170  0.86640  0.92580  Biso   1.000  H
  H31      1.0000 0.24630  0.95790  0.86640  Biso   1.000  H
  H32      1.0000 0.16360  0.90120  0.88040  Biso   1.000  H
  H33      1.0000 0.87650  0.64880  0.38800  Biso   1.000  H
  H34      1.0000 0.85330  0.70730  0.35140  Biso   1.000  H
  H35      1.0000 0.94230  0.80080  0.35240  Biso   1.000  H
  H36      1.0000 0.96570  0.74240  0.38880  Biso   1.000  H
  H37      1.0000 0.90110  0.48540  0.33540  Biso   1.000  H
  H38      1.0000 0.88360  0.47550  0.29260  Biso   1.000  H
  H39      1.0000 0.95520  0.36660  0.29840  Biso   1.000  H
  H40      1.0000 0.97280  0.37650  0.34120  Biso   1.000  H
  H41      1.0000 0.95070  0.60370  0.47380  Biso   1.000  H
  H42      1.0000 0.93440  0.54340  0.39880  Biso   1.000  H
  H43      1.0000 0.96870  0.41460  0.42580  Biso   1.000  H
  H44      1.0000 0.98240  0.42490  0.47040  Biso   1.000  H
  H45      1.0000 0.91300  0.59730  0.41020  Biso   1.000  H
  H46      1.0000 0.95780  0.66170  0.42580  Biso   1.000  H
  H47      1.0000 0.92570  0.49630  0.36640  Biso   1.000  H
  H48      1.0000 0.96840  0.41360  0.38040  Biso   1.000  H
  H49      1.0000 0.73550  0.96320  0.38800  Biso   1.000  H
  H50      1.0000 0.79530  0.94130  0.35140  Biso   1.000  H
  H51      1.0000 0.70530  0.84680  0.35240  Biso   1.000  H
  H52      1.0000 0.64550  0.86880  0.38880  Biso   1.000  H
  H53      1.0000 0.76350  0.17920  0.33540  Biso   1.000  H
  H54      1.0000 0.82380  0.23190  0.29260  Biso   1.000  H
  H55      1.0000 0.74640  0.33500  0.29840  Biso   1.000  H
  H56      1.0000 0.68600  0.28230  0.34120  Biso   1.000  H
  H57      1.0000 0.57550  0.92250  0.47380  Biso   1.000  H
  H58      1.0000 0.66680  0.05780  0.39880  Biso   1.000  H
  H59      1.0000 0.60550  0.15960  0.42580  Biso   1.000  H
  H60      1.0000 0.54720  0.10470  0.47040  Biso   1.000  H
  H61      1.0000 0.67680  0.99250  0.41020  Biso   1.000  H
  H62      1.0000 0.61640  0.91250  0.42580  Biso   1.000  H
  H63      1.0000 0.70790  0.13730  0.36640  Biso   1.000  H
  H64      1.0000 0.65120  0.20600  0.38040  Biso   1.000  H
  H65      1.0000 0.35120  0.12350  0.61200  Biso   1.000  H
  H66      1.0000 0.29270  0.14670  0.64860  Biso   1.000  H
  H67      1.0000 0.19920  0.05770  0.64760  Biso   1.000  H
  H68      1.0000 0.25760  0.03430  0.61120  Biso   1.000  H
  H69      1.0000 0.51460  0.09890  0.66460  Biso   1.000  H
  H70      1.0000 0.52450  0.11640  0.70740  Biso   1.000  H
  H71      1.0000 0.63340  0.04480  0.70160  Biso   1.000  H
  H72      1.0000 0.62350  0.02720  0.65880  Biso   1.000  H
  H73      1.0000 0.39630  0.04930  0.52620  Biso   1.000  H
  H74      1.0000 0.45660  0.06560  0.60120  Biso   1.000  H
  H75      1.0000 0.58540  0.03130  0.57420  Biso   1.000  H
  H76      1.0000 0.57510  0.01760  0.52960  Biso   1.000  H
  H77      1.0000 0.40270  0.08700  0.58980  Biso   1.000  H
  H78      1.0000 0.33830  0.04220  0.57420  Biso   1.000  H
  H79      1.0000 0.50370  0.07430  0.63360  Biso   1.000  H
  H80      1.0000 0.58640  0.03160  0.61960  Biso   1.000  H
  H81      1.0000 0.03680  0.26450  0.61200  Biso   1.000  H
  H82      1.0000 0.05870  0.20470  0.64860  Biso   1.000  H
  H83      1.0000 0.15320  0.29470  0.64760  Biso   1.000  H
  H84      1.0000 0.13120  0.35450  0.61120  Biso   1.000  H
  H85      1.0000 0.82080  0.23650  0.66460  Biso   1.000  H
  H86      1.0000 0.76810  0.17620  0.70740  Biso   1.000  H
  H87      1.0000 0.66500  0.25360  0.70160  Biso   1.000  H
  H88      1.0000 0.71770  0.31400  0.65880  Biso   1.000  H
  H89      1.0000 0.07750  0.42450  0.52620  Biso   1.000  H
  H90      1.0000 0.94220  0.33320  0.60120  Biso   1.000  H
  H91      1.0000 0.84040  0.39450  0.57420  Biso   1.000  H
  H92      1.0000 0.89530  0.45280  0.52960  Biso   1.000  H
  H93      1.0000 0.00750  0.32320  0.58980  Biso   1.000  H
  H94      1.0000 0.08750  0.38360  0.57420  Biso   1.000  H
  H95      1.0000 0.86270  0.29210  0.63360  Biso   1.000  H
  H96      1.0000 0.79400  0.34880  0.61960  Biso   1.000  H
  H97      1.0000 0.01450  0.60120  0.11200  Biso   1.000  H
  H98      1.0000 0.95470  0.54270  0.14860  Biso   1.000  H
  H99      1.0000 0.04470  0.44920  0.14760  Biso   1.000  H
  H100     1.0000 0.10450  0.50760  0.11120  Biso   1.000  H
  H101     1.0000 0.98650  0.76460  0.16460  Biso   1.000  H
  H102     1.0000 0.92620  0.77450  0.20740  Biso   1.000  H
  H103     1.0000 0.00360  0.88340  0.20160  Biso   1.000  H
  H104     1.0000 0.06400  0.87350  0.15880  Biso   1.000  H
  H105     1.0000 0.17450  0.64630  0.02620  Biso   1.000  H
  H106     1.0000 0.08320  0.70660  0.10120  Biso   1.000  H
  H107     1.0000 0.14450  0.83540  0.07420  Biso   1.000  H
  H108     1.0000 0.20280  0.82510  0.02960  Biso   1.000  H
  H109     1.0000 0.07320  0.65270  0.08980  Biso   1.000  H
  H110     1.0000 0.13360  0.58830  0.07420  Biso   1.000  H
  H111     1.0000 0.04210  0.75370  0.13360  Biso   1.000  H
  H112     1.0000 0.09880  0.83640  0.11960  Biso   1.000  H
  H113     1.0000 0.87350  0.28680  0.11200  Biso   1.000  H
  H114     1.0000 0.89670  0.30870  0.14860  Biso   1.000  H
  H115     1.0000 0.80770  0.40320  0.14760  Biso   1.000  H
  H116     1.0000 0.78430  0.38120  0.11120  Biso   1.000  H
  H117     1.0000 0.84890  0.07080  0.16460  Biso   1.000  H
  H118     1.0000 0.86640  0.01810  0.20740  Biso   1.000  H
  H119     1.0000 0.79480  0.91500  0.20160  Biso   1.000  H
  H120     1.0000 0.77720  0.96770  0.15880  Biso   1.000  H
  H121     1.0000 0.79930  0.32750  0.02620  Biso   1.000  H
  H122     1.0000 0.81560  0.19220  0.10120  Biso   1.000  H
  H123     1.0000 0.78130  0.09040  0.07420  Biso   1.000  H
  H124     1.0000 0.76760  0.14530  0.02960  Biso   1.000  H
  H125     1.0000 0.83700  0.25750  0.08980  Biso   1.000  H
  H126     1.0000 0.79220  0.33750  0.07420  Biso   1.000  H
  H127     1.0000 0.82430  0.11270  0.13360  Biso   1.000  H
  H128     1.0000 0.78160  0.04400  0.11960  Biso   1.000  H
  C1       1.0000 0.66816  0.17346  0.89208  Biso   1.000  C
  C2       1.0000 0.68990  0.13980  0.88080  Biso   1.000  C
  C3       1.0000 0.67670  0.12570  0.85900  Biso   1.000  C
  C4       1.0000 0.64186  0.14546  0.84828  Biso   1.000  C
  C5       1.0000 0.62020  0.17920  0.85940  Biso   1.000  C
  C6       1.0000 0.63330  0.19310  0.88140  Biso   1.000  C
  C7       1.0000 0.64190  0.22820  0.01840  Biso   1.000  C
  C8       1.0000 0.64470  0.26360  0.98460  Biso   1.000  C
  C9       1.0000 0.97553  0.18873  0.84254  Biso   1.000  C
  C10      1.0000 0.96040  0.16200  0.82800  Biso   1.000  C
  C11      1.0000 0.99200  0.15140  0.80240  Biso   1.000  C
  C12      1.0000 0.03868  0.16768  0.79124  Biso   1.000  C
  C13      1.0000 0.05380  0.19440  0.80580  Biso   1.000  C
  C14      1.0000 0.02220  0.20490  0.83140  Biso   1.000  C
  C15      1.0000 0.62890  0.13020  0.82560  Biso   1.000  C
  C16      1.0000 0.07430  0.15670  0.76580  Biso   1.000  C
  C17      1.0000 0.76440  0.22520  0.98720  Biso   1.000  C
  C18      1.0000 0.71766  0.21946  0.99188  Biso   1.000  C
  C19      1.0000 0.70380  0.20460  0.97060  Biso   1.000  C
  C20      1.0000 0.73661  0.19551  0.94478  Biso   1.000  C
  C21      1.0000 0.78331  0.20121  0.94018  Biso   1.000  C
  C22      1.0000 0.79720  0.21610  0.96140  Biso   1.000  C
  C23      1.0000 0.81760  0.19370  0.91300  Biso   1.000  C
  C24      1.0000 0.86530  0.19930  0.90700  Biso   1.000  C
  C25      1.0000 0.87840  0.21430  0.92900  Biso   1.000  C
  C26      1.0000 0.84510  0.22270  0.95620  Biso   1.000  C
  C27      1.0000 0.72310  0.17990  0.92120  Biso   1.000  C
  C28      1.0000 0.68170  0.19030  0.91520  Biso   1.000  C
  C29      1.0000 0.89780  0.18970  0.87820  Biso   1.000  C
  C30      1.0000 0.94470  0.20260  0.87000  Biso   1.000  C
  C31      1.0000 0.43976  0.93446  0.89208  Biso   1.000  C
  C32      1.0000 0.42930  0.97940  0.88080  Biso   1.000  C
  C33      1.0000 0.46430  0.01530  0.85900  Biso   1.000  C
  C34      1.0000 0.50986  0.00626  0.84828  Biso   1.000  C
  C35      1.0000 0.52040  0.96140  0.85940  Biso   1.000  C
  C36      1.0000 0.48530  0.92550  0.88140  Biso   1.000  C
  C37      1.0000 0.33970  0.75340  0.01840  Biso   1.000  C
  C38      1.0000 0.37070  0.75180  0.98460  Biso   1.000  C
  C39      1.0000 0.18193  0.96873  0.84254  Biso   1.000  C
  C40      1.0000 0.21160  0.01000  0.82800  Biso   1.000  C
  C41      1.0000 0.20560  0.04620  0.80240  Biso   1.000  C
  C42      1.0000 0.17008  0.04108  0.79124  Biso   1.000  C
  C43      1.0000 0.14040  0.99980  0.80580  Biso   1.000  C
  C44      1.0000 0.14640  0.96370  0.83140  Biso   1.000  C
  C45      1.0000 0.54550  0.04420  0.82560  Biso   1.000  C
  C46      1.0000 0.15990  0.07750  0.76580  Biso   1.000  C
  C47      1.0000 0.24840  0.78760  0.98720  Biso   1.000  C
  C48      1.0000 0.29046  0.78866  0.99188  Biso   1.000  C
  C49      1.0000 0.32560  0.82480  0.97060  Biso   1.000  C
  C50      1.0000 0.31861  0.85971  0.94478  Biso   1.000  C
  C51      1.0000 0.27651  0.85861  0.94018  Biso   1.000  C
  C52      1.0000 0.24140  0.82250  0.96140  Biso   1.000  C
  C53      1.0000 0.26940  0.89330  0.91300  Biso   1.000  C
  C54      1.0000 0.22770  0.89370  0.90700  Biso   1.000  C
  C55      1.0000 0.19260  0.85670  0.92900  Biso   1.000  C
  C56      1.0000 0.19870  0.82110  0.95620  Biso   1.000  C
  C57      1.0000 0.35570  0.89890  0.92120  Biso   1.000  C
  C58      1.0000 0.40310  0.89450  0.91520  Biso   1.000  C
  C59      1.0000 0.22400  0.93210  0.87820  Biso   1.000  C
  C60      1.0000 0.18530  0.92740  0.87000  Biso   1.000  C
  C61      1.0000 0.92346  0.68976  0.39208  Biso   1.000  C
  C62      1.0000 0.88980  0.67930  0.38080  Biso   1.000  C
  C63      1.0000 0.87570  0.71430  0.35900  Biso   1.000  C
  C64      1.0000 0.89546  0.75986  0.34828  Biso   1.000  C
  C65      1.0000 0.92920  0.77040  0.35940  Biso   1.000  C
  C66      1.0000 0.94310  0.73530  0.38140  Biso   1.000  C
  C67      1.0000 0.97820  0.58970  0.51840  Biso   1.000  C
  C68      1.0000 0.01360  0.62070  0.48460  Biso   1.000  C
  C69      1.0000 0.93873  0.43193  0.34254  Biso   1.000  C
  C70      1.0000 0.91200  0.46160  0.32800  Biso   1.000  C
  C71      1.0000 0.90140  0.45560  0.30240  Biso   1.000  C
  C72      1.0000 0.91768  0.42008  0.29124  Biso   1.000  C
  C73      1.0000 0.94440  0.39040  0.30580  Biso   1.000  C
  C74      1.0000 0.95490  0.39640  0.33140  Biso   1.000  C
  C75      1.0000 0.88020  0.79550  0.32560  Biso   1.000  C
  C76      1.0000 0.90670  0.40990  0.26580  Biso   1.000  C
  C77      1.0000 0.97520  0.49840  0.48720  Biso   1.000  C
  C78      1.0000 0.96946  0.54046  0.49188  Biso   1.000  C
  C79      1.0000 0.95460  0.57560  0.47060  Biso   1.000  C
  C80      1.0000 0.94551  0.56861  0.44478  Biso   1.000  C
  C81      1.0000 0.95121  0.52651  0.44018  Biso   1.000  C
  C82      1.0000 0.96610  0.49140  0.46140  Biso   1.000  C
  C83      1.0000 0.94370  0.51940  0.41300  Biso   1.000  C
  C84      1.0000 0.94930  0.47770  0.40700  Biso   1.000  C
  C85      1.0000 0.96430  0.44260  0.42900  Biso   1.000  C
  C86      1.0000 0.97270  0.44870  0.45620  Biso   1.000  C
  C87      1.0000 0.92990  0.60570  0.42120  Biso   1.000  C
  C88      1.0000 0.94030  0.65310  0.41520  Biso   1.000  C
  C89      1.0000 0.93970  0.47400  0.37820  Biso   1.000  C
  C90      1.0000 0.95260  0.43530  0.37000  Biso   1.000  C
  C91      1.0000 0.68446  0.91816  0.39208  Biso   1.000  C
  C92      1.0000 0.72940  0.93990  0.38080  Biso   1.000  C
  C93      1.0000 0.76530  0.92670  0.35900  Biso   1.000  C
  C94      1.0000 0.75626  0.89186  0.34828  Biso   1.000  C
  C95      1.0000 0.71140  0.87020  0.35940  Biso   1.000  C
  C96      1.0000 0.67550  0.88330  0.38140  Biso   1.000  C
  C97      1.0000 0.50340  0.89190  0.51840  Biso   1.000  C
  C98      1.0000 0.50180  0.89470  0.48460  Biso   1.000  C
  C99      1.0000 0.71873  0.22553  0.34254  Biso   1.000  C
  C100     1.0000 0.76000  0.21040  0.32800  Biso   1.000  C
  C101     1.0000 0.79620  0.24200  0.30240  Biso   1.000  C
  C102     1.0000 0.79108  0.28868  0.29124  Biso   1.000  C
  C103     1.0000 0.74980  0.30380  0.30580  Biso   1.000  C
  C104     1.0000 0.71370  0.27220  0.33140  Biso   1.000  C
  C105     1.0000 0.79420  0.87890  0.32560  Biso   1.000  C
  C106     1.0000 0.82750  0.32430  0.26580  Biso   1.000  C
  C107     1.0000 0.53760  0.01440  0.48720  Biso   1.000  C
  C108     1.0000 0.53866  0.96766  0.49188  Biso   1.000  C
  C109     1.0000 0.57480  0.95380  0.47060  Biso   1.000  C
  C110     1.0000 0.60971  0.98661  0.44478  Biso   1.000  C
  C111     1.0000 0.60861  0.03331  0.44018  Biso   1.000  C
  C112     1.0000 0.57250  0.04720  0.46140  Biso   1.000  C
  C113     1.0000 0.64330  0.06760  0.41300  Biso   1.000  C
  C114     1.0000 0.64370  0.11530  0.40700  Biso   1.000  C
  C115     1.0000 0.60670  0.12840  0.42900  Biso   1.000  C
  C116     1.0000 0.57110  0.09510  0.45620  Biso   1.000  C
  C117     1.0000 0.64890  0.97310  0.42120  Biso   1.000  C
  C118     1.0000 0.64450  0.93170  0.41520  Biso   1.000  C
  C119     1.0000 0.68210  0.14780  0.37820  Biso   1.000  C
  C120     1.0000 0.67740  0.19470  0.37000  Biso   1.000  C
  C121     1.0000 0.31024  0.07654  0.60792  Biso   1.000  C
  C122     1.0000 0.32070  0.11020  0.61920  Biso   1.000  C
  C123     1.0000 0.28570  0.12430  0.64100  Biso   1.000  C
  C124     1.0000 0.24014  0.10454  0.65172  Biso   1.000  C
  C125     1.0000 0.22960  0.07080  0.64060  Biso   1.000  C
  C126     1.0000 0.26470  0.05690  0.61860  Biso   1.000  C
  C127     1.0000 0.41030  0.02180  0.48160  Biso   1.000  C
  C128     1.0000 0.37930  0.98640  0.51540  Biso   1.000  C
  C129     1.0000 0.56807  0.06127  0.65746  Biso   1.000  C
  C130     1.0000 0.53840  0.08800  0.67200  Biso   1.000  C
  C131     1.0000 0.54440  0.09860  0.69760  Biso   1.000  C
  C132     1.0000 0.57992  0.08232  0.70876  Biso   1.000  C
  C133     1.0000 0.60960  0.05560  0.69420  Biso   1.000  C
  C134     1.0000 0.60360  0.04510  0.66860  Biso   1.000  C
  C135     1.0000 0.20450  0.11980  0.67440  Biso   1.000  C
  C136     1.0000 0.59010  0.09330  0.73420  Biso   1.000  C
  C137     1.0000 0.50160  0.02480  0.51280  Biso   1.000  C
  C138     1.0000 0.45954  0.03054  0.50812  Biso   1.000  C
  C139     1.0000 0.42440  0.04540  0.52940  Biso   1.000  C
  C140     1.0000 0.43139  0.05449  0.55522  Biso   1.000  C
  C141     1.0000 0.47349  0.04879  0.55982  Biso   1.000  C
  C142     1.0000 0.50860  0.03390  0.53860  Biso   1.000  C
  C143     1.0000 0.48060  0.05630  0.58700  Biso   1.000  C
  C144     1.0000 0.52230  0.05070  0.59300  Biso   1.000  C
  C145     1.0000 0.55740  0.03570  0.57100  Biso   1.000  C
  C146     1.0000 0.55130  0.02730  0.54380  Biso   1.000  C
  C147     1.0000 0.39430  0.07010  0.57880  Biso   1.000  C
  C148     1.0000 0.34690  0.05970  0.58480  Biso   1.000  C
  C149     1.0000 0.52600  0.06030  0.62180  Biso   1.000  C
  C150     1.0000 0.56470  0.04740  0.63000  Biso   1.000  C
  C151     1.0000 0.08184  0.31554  0.60792  Biso   1.000  C
  C152     1.0000 0.06010  0.27060  0.61920  Biso   1.000  C
  C153     1.0000 0.07330  0.23470  0.64100  Biso   1.000  C
  C154     1.0000 0.10814  0.24374  0.65172  Biso   1.000  C
  C155     1.0000 0.12980  0.28860  0.64060  Biso   1.000  C
  C156     1.0000 0.11670  0.32450  0.61860  Biso   1.000  C
  C157     1.0000 0.10810  0.49660  0.48160  Biso   1.000  C
  C158     1.0000 0.10530  0.49820  0.51540  Biso   1.000  C
  C159     1.0000 0.77447  0.28127  0.65746  Biso   1.000  C
  C160     1.0000 0.78960  0.24000  0.67200  Biso   1.000  C
  C161     1.0000 0.75800  0.20380  0.69760  Biso   1.000  C
  C162     1.0000 0.71132  0.20892  0.70876  Biso   1.000  C
  C163     1.0000 0.69620  0.25020  0.69420  Biso   1.000  C
  C164     1.0000 0.72780  0.28630  0.66860  Biso   1.000  C
  C165     1.0000 0.12110  0.20580  0.67440  Biso   1.000  C
  C166     1.0000 0.67570  0.17250  0.73420  Biso   1.000  C
  C167     1.0000 0.98560  0.46240  0.51280  Biso   1.000  C
  C168     1.0000 0.03234  0.46134  0.50812  Biso   1.000  C
  C169     1.0000 0.04620  0.42520  0.52940  Biso   1.000  C
  C170     1.0000 0.01339  0.39029  0.55522  Biso   1.000  C
  C171     1.0000 0.96669  0.39139  0.55982  Biso   1.000  C
  C172     1.0000 0.95280  0.42750  0.53860  Biso   1.000  C
  C173     1.0000 0.93240  0.35670  0.58700  Biso   1.000  C
  C174     1.0000 0.88470  0.35630  0.59300  Biso   1.000  C
  C175     1.0000 0.87160  0.39330  0.57100  Biso   1.000  C
  C176     1.0000 0.90490  0.42890  0.54380  Biso   1.000  C
  C177     1.0000 0.02690  0.35110  0.57880  Biso   1.000  C
  C178     1.0000 0.06830  0.35550  0.58480  Biso   1.000  C
  C179     1.0000 0.85220  0.31790  0.62180  Biso   1.000  C
  C180     1.0000 0.80530  0.32260  0.63000  Biso   1.000  C
  C181     1.0000 0.06554  0.56024  0.10792  Biso   1.000  C
  C182     1.0000 0.02060  0.57070  0.11920  Biso   1.000  C
  C183     1.0000 0.98470  0.53570  0.14100  Biso   1.000  C
  C184     1.0000 0.99374  0.49014  0.15172  Biso   1.000  C
  C185     1.0000 0.03860  0.47960  0.14060  Biso   1.000  C
  C186     1.0000 0.07450  0.51470  0.11860  Biso   1.000  C
  C187     1.0000 0.24660  0.66030  0.98160  Biso   1.000  C
  C188     1.0000 0.24820  0.62930  0.01540  Biso   1.000  C
  C189     1.0000 0.03127  0.81807  0.15746  Biso   1.000  C
  C190     1.0000 0.99000  0.78840  0.17200  Biso   1.000  C
  C191     1.0000 0.95380  0.79440  0.19760  Biso   1.000  C
  C192     1.0000 0.95892  0.82992  0.20876  Biso   1.000  C
  C193     1.0000 0.00020  0.85960  0.19420  Biso   1.000  C
  C194     1.0000 0.03630  0.85360  0.16860  Biso   1.000  C
  C195     1.0000 0.95580  0.45450  0.17440  Biso   1.000  C
  C196     1.0000 0.92250  0.84010  0.23420  Biso   1.000  C
  C197     1.0000 0.21240  0.75160  0.01280  Biso   1.000  C
  C198     1.0000 0.21134  0.70954  0.00812  Biso   1.000  C
  C199     1.0000 0.17520  0.67440  0.02940  Biso   1.000  C
  C200     1.0000 0.14029  0.68139  0.05522  Biso   1.000  C
  C201     1.0000 0.14139  0.72349  0.05982  Biso   1.000  C
  C202     1.0000 0.17750  0.75860  0.03860  Biso   1.000  C
  C203     1.0000 0.10670  0.73060  0.08700  Biso   1.000  C
  C204     1.0000 0.10630  0.77230  0.09300  Biso   1.000  C
  C205     1.0000 0.14330  0.80740  0.07100  Biso   1.000  C
  C206     1.0000 0.17890  0.80130  0.04380  Biso   1.000  C
  C207     1.0000 0.10110  0.64430  0.07880  Biso   1.000  C
  C208     1.0000 0.10550  0.59690  0.08480  Biso   1.000  C
  C209     1.0000 0.06790  0.77600  0.12180  Biso   1.000  C
  C210     1.0000 0.07260  0.81470  0.13000  Biso   1.000  C
  C211     1.0000 0.82654  0.33184  0.10792  Biso   1.000  C
  C212     1.0000 0.86020  0.31010  0.11920  Biso   1.000  C
  C213     1.0000 0.87430  0.32330  0.14100  Biso   1.000  C
  C214     1.0000 0.85454  0.35814  0.15172  Biso   1.000  C
  C215     1.0000 0.82080  0.37980  0.14060  Biso   1.000  C
  C216     1.0000 0.80690  0.36670  0.11860  Biso   1.000  C
  C217     1.0000 0.77180  0.35810  0.98160  Biso   1.000  C
  C218     1.0000 0.73640  0.35530  0.01540  Biso   1.000  C
  C219     1.0000 0.81127  0.02447  0.15746  Biso   1.000  C
  C220     1.0000 0.83800  0.03960  0.17200  Biso   1.000  C
  C221     1.0000 0.84860  0.00800  0.19760  Biso   1.000  C
  C222     1.0000 0.83232  0.96132  0.20876  Biso   1.000  C
  C223     1.0000 0.80560  0.94620  0.19420  Biso   1.000  C
  C224     1.0000 0.79510  0.97780  0.16860  Biso   1.000  C
  C225     1.0000 0.86980  0.37110  0.17440  Biso   1.000  C
  C226     1.0000 0.84330  0.92570  0.23420  Biso   1.000  C
  C227     1.0000 0.77480  0.23560  0.01280  Biso   1.000  C
  C228     1.0000 0.78054  0.28234  0.00812  Biso   1.000  C
  C229     1.0000 0.79540  0.29620  0.02940  Biso   1.000  C
  C230     1.0000 0.80449  0.26339  0.05522  Biso   1.000  C
  C231     1.0000 0.79879  0.21669  0.05982  Biso   1.000  C
  C232     1.0000 0.78390  0.20280  0.03860  Biso   1.000  C
  C233     1.0000 0.80630  0.18240  0.08700  Biso   1.000  C
  C234     1.0000 0.80070  0.13470  0.09300  Biso   1.000  C
  C235     1.0000 0.78570  0.12160  0.07100  Biso   1.000  C
  C236     1.0000 0.77730  0.15490  0.04380  Biso   1.000  C
  C237     1.0000 0.82010  0.27690  0.07880  Biso   1.000  C
  C238     1.0000 0.80970  0.31830  0.08480  Biso   1.000  C
  C239     1.0000 0.81030  0.10220  0.12180  Biso   1.000  C
  C240     1.0000 0.79740  0.05530  0.13000  Biso   1.000  C
  O1       1.0000 0.64800  0.09730  0.81660  Biso   1.000  O
  O2       1.0000 0.59830  0.14870  0.81380  Biso   1.000  O
  O3       1.0000 0.11710  0.17440  0.75700  Biso   1.000  O
  O4       1.0000 0.06600  0.13060  0.75120  Biso   1.000  O
  O5       1.0000 0.68790  0.22620  0.01820  Biso   1.000  O
  O6       1.0000 0.53540  0.08610  0.81660  Biso   1.000  O
  O7       1.0000 0.58790  0.03750  0.81380  Biso   1.000  O
  O8       1.0000 0.12590  0.06860  0.75700  Biso   1.000  O
  O9       1.0000 0.18280  0.11820  0.75120  Biso   1.000  O
  O10      1.0000 0.29390  0.75560  0.01820  Biso   1.000  O
  O11      1.0000 0.84730  0.78540  0.31660  Biso   1.000  O
  O12      1.0000 0.89870  0.83790  0.31380  Biso   1.000  O
  O13      1.0000 0.92440  0.37590  0.25700  Biso   1.000  O
  O14      1.0000 0.88060  0.43280  0.25120  Biso   1.000  O
  O15      1.0000 0.97620  0.54390  0.51820  Biso   1.000  O
  O16      1.0000 0.83610  0.89800  0.31660  Biso   1.000  O
  O17      1.0000 0.78750  0.84830  0.31380  Biso   1.000  O
  O18      1.0000 0.81860  0.36710  0.25700  Biso   1.000  O
  O19      1.0000 0.86820  0.31600  0.25120  Biso   1.000  O
  O20      1.0000 0.50560  0.93790  0.51820  Biso   1.000  O
  O21      1.0000 0.21460  0.15270  0.68340  Biso   1.000  O
  O22      1.0000 0.16210  0.10130  0.68620  Biso   1.000  O
  O23      1.0000 0.62410  0.07560  0.74300  Biso   1.000  O
  O24      1.0000 0.56720  0.11940  0.74880  Biso   1.000  O
  O25      1.0000 0.45610  0.02380  0.48180  Biso   1.000  O
  O26      1.0000 0.10200  0.16390  0.68340  Biso   1.000  O
  O27      1.0000 0.15170  0.21250  0.68620  Biso   1.000  O
  O28      1.0000 0.63290  0.18140  0.74300  Biso   1.000  O
  O29      1.0000 0.68400  0.13180  0.74880  Biso   1.000  O
  O30      1.0000 0.06210  0.49440  0.48180  Biso   1.000  O
  O31      1.0000 0.91390  0.46460  0.18340  Biso   1.000  O
  O32      1.0000 0.96250  0.41210  0.18620  Biso   1.000  O
  O33      1.0000 0.93140  0.87410  0.24300  Biso   1.000  O
  O34      1.0000 0.88180  0.81720  0.24880  Biso   1.000  O
  O35      1.0000 0.24440  0.70610  0.98180  Biso   1.000  O
  O36      1.0000 0.90270  0.35200  0.18340  Biso   1.000  O
  O37      1.0000 0.85130  0.40170  0.18620  Biso   1.000  O
  O38      1.0000 0.82560  0.88290  0.24300  Biso   1.000  O
  O39      1.0000 0.86940  0.93400  0.24880  Biso   1.000  O
  O40      1.0000 0.77380  0.31210  0.98180  Biso   1.000  O
  Cu9      1.0000 0.00753  0.94455  0.04955  Biso   1.000  Cu
  Cu10     1.0000 0.94953  0.00115  0.04955  Biso   1.000  Cu
  Cu11     1.0000 0.20023  0.69385  0.54955  Biso   1.000  Cu
  Cu12     1.0000 0.25683  0.75185  0.54955  Biso   1.000  Cu
  Cu13     1.0000 0.53777  0.03139  0.98907  Biso   1.000  Cu
  Cu14     1.0000 0.47977  0.97479  0.98907  Biso   1.000  Cu
  Cu15     1.0000 0.23047  0.28209  0.48907  Biso   1.000  Cu
  Cu16     1.0000 0.28707  0.22409  0.48907  Biso   1.000  Cu
  H129     1.0000 0.08185  0.98947  0.15731  Biso   1.000  H
  H130     1.0000 0.05995  0.96627  0.12071  Biso   1.000  H
  H131     1.0000 0.96545  0.05527  0.12171  Biso   1.000  H
  H132     1.0000 0.98745  0.07867  0.15811  Biso   1.000  H
  H133     1.0000 0.29785  0.01407  0.10471  Biso   1.000  H
  H134     1.0000 0.35055  0.99657  0.06191  Biso   1.000  H
  H135     1.0000 0.45365  0.06817  0.06771  Biso   1.000  H
  H136     1.0000 0.40095  0.08577  0.11051  Biso   1.000  H
  H137     1.0000 0.04115  0.06367  0.24311  Biso   1.000  H
  H138     1.0000 0.17645  0.04737  0.16811  Biso   1.000  H
  H139     1.0000 0.27825  0.08167  0.19511  Biso   1.000  H
  H140     1.0000 0.22335  0.09537  0.23971  Biso   1.000  H
  H141     1.0000 0.11115  0.02597  0.17951  Biso   1.000  H
  H142     1.0000 0.03115  0.07077  0.19511  Biso   1.000  H
  H143     1.0000 0.25595  0.03867  0.13571  Biso   1.000  H
  H144     1.0000 0.32465  0.08137  0.14971  Biso   1.000  H
  H145     1.0000 0.76745  0.84847  0.15731  Biso   1.000  H
  H146     1.0000 0.82595  0.90827  0.12071  Biso   1.000  H
  H147     1.0000 0.91945  0.81827  0.12171  Biso   1.000  H
  H148     1.0000 0.86105  0.75847  0.15811  Biso   1.000  H
  H149     1.0000 0.60405  0.87647  0.10471  Biso   1.000  H
  H150     1.0000 0.59415  0.93677  0.06191  Biso   1.000  H
  H151     1.0000 0.48525  0.85937  0.06771  Biso   1.000  H
  H152     1.0000 0.49515  0.79897  0.11051  Biso   1.000  H
  H153     1.0000 0.72235  0.68847  0.24311  Biso   1.000  H
  H154     1.0000 0.66205  0.77977  0.16811  Biso   1.000  H
  H155     1.0000 0.53325  0.71847  0.19511  Biso   1.000  H
  H156     1.0000 0.54355  0.66017  0.23971  Biso   1.000  H
  H157     1.0000 0.71595  0.78977  0.17951  Biso   1.000  H
  H158     1.0000 0.78035  0.72937  0.19511  Biso   1.000  H
  H159     1.0000 0.61495  0.82087  0.13571  Biso   1.000  H
  H160     1.0000 0.53225  0.76417  0.14971  Biso   1.000  H
  H161     1.0000 0.24515  0.51177  0.65731  Biso   1.000  H
  H162     1.0000 0.22195  0.57027  0.62071  Biso   1.000  H
  H163     1.0000 0.31095  0.66377  0.62171  Biso   1.000  H
  H164     1.0000 0.33435  0.60537  0.65811  Biso   1.000  H
  H165     1.0000 0.26975  0.34837  0.60471  Biso   1.000  H
  H166     1.0000 0.25225  0.33847  0.56191  Biso   1.000  H
  H167     1.0000 0.32385  0.22957  0.56771  Biso   1.000  H
  H168     1.0000 0.34145  0.23947  0.61051  Biso   1.000  H
  H169     1.0000 0.31935  0.46667  0.74311  Biso   1.000  H
  H170     1.0000 0.30305  0.40637  0.66811  Biso   1.000  H
  H171     1.0000 0.33735  0.27757  0.69511  Biso   1.000  H
  H172     1.0000 0.35105  0.28787  0.73971  Biso   1.000  H
  H173     1.0000 0.28165  0.46027  0.67951  Biso   1.000  H
  H174     1.0000 0.32645  0.52467  0.69511  Biso   1.000  H
  H175     1.0000 0.29435  0.35927  0.63571  Biso   1.000  H
  H176     1.0000 0.33705  0.27657  0.64971  Biso   1.000  H
  H177     1.0000 0.10415  0.82617  0.65731  Biso   1.000  H
  H178     1.0000 0.16395  0.80427  0.62071  Biso   1.000  H
  H179     1.0000 0.07395  0.70977  0.62171  Biso   1.000  H
  H180     1.0000 0.01415  0.73177  0.65811  Biso   1.000  H
  H181     1.0000 0.13215  0.04217  0.60471  Biso   1.000  H
  H182     1.0000 0.19245  0.09487  0.56191  Biso   1.000  H
  H183     1.0000 0.11505  0.19797  0.56771  Biso   1.000  H
  H184     1.0000 0.05465  0.14527  0.61051  Biso   1.000  H
  H185     1.0000 0.94415  0.78547  0.74311  Biso   1.000  H
  H186     1.0000 0.03545  0.92077  0.66811  Biso   1.000  H
  H187     1.0000 0.97415  0.02257  0.69511  Biso   1.000  H
  H188     1.0000 0.91585  0.96767  0.73971  Biso   1.000  H
  H189     1.0000 0.04545  0.85547  0.67951  Biso   1.000  H
  H190     1.0000 0.98505  0.77548  0.69511  Biso   1.000  H
  H191     1.0000 0.07655  0.00027  0.63571  Biso   1.000  H
  H192     1.0000 0.01985  0.06897  0.64971  Biso   1.000  H
  H193     1.0000 0.71985  0.98647  0.88131  Biso   1.000  H
  H194     1.0000 0.66135  0.00967  0.91791  Biso   1.000  H
  H195     1.0000 0.56785  0.92067  0.91691  Biso   1.000  H
  H196     1.0000 0.62625  0.89727  0.88051  Biso   1.000  H
  H197     1.0000 0.88325  0.96187  0.93391  Biso   1.000  H
  H198     1.0000 0.89315  0.97937  0.97671  Biso   1.000  H
  H199     1.0000 0.00205  0.90777  0.97091  Biso   1.000  H
  H200     1.0000 0.99215  0.89017  0.92811  Biso   1.000  H
  H201     1.0000 0.76495  0.91227  0.79551  Biso   1.000  H
  H202     1.0000 0.82525  0.92857  0.87051  Biso   1.000  H
  H203     1.0000 0.95405  0.89427  0.84351  Biso   1.000  H
  H204     1.0000 0.94375  0.88057  0.79891  Biso   1.000  H
  H205     1.0000 0.77135  0.94997  0.85911  Biso   1.000  H
  H206     1.0000 0.70695  0.90517  0.84351  Biso   1.000  H
  H207     1.0000 0.87235  0.93727  0.90291  Biso   1.000  H
  H208     1.0000 0.95505  0.89457  0.88891  Biso   1.000  H
  H209     1.0000 0.40545  0.12747  0.88131  Biso   1.000  H
  H210     1.0000 0.42735  0.06767  0.91791  Biso   1.000  H
  H211     1.0000 0.52185  0.15767  0.91691  Biso   1.000  H
  H212     1.0000 0.49985  0.21747  0.88051  Biso   1.000  H
  H213     1.0000 0.18945  0.09947  0.93391  Biso   1.000  H
  H214     1.0000 0.13675  0.03917  0.97671  Biso   1.000  H
  H215     1.0000 0.03365  0.11657  0.97091  Biso   1.000  H
  H216     1.0000 0.08635  0.17697  0.92811  Biso   1.000  H
  H217     1.0000 0.44615  0.28747  0.79551  Biso   1.000  H
  H218     1.0000 0.31085  0.19617  0.87051  Biso   1.000  H
  H219     1.0000 0.20905  0.25747  0.84351  Biso   1.000  H
  H220     1.0000 0.26395  0.31577  0.79891  Biso   1.000  H
  H221     1.0000 0.37615  0.18617  0.85911  Biso   1.000  H
  H222     1.0000 0.45615  0.24657  0.84351  Biso   1.000  H
  H223     1.0000 0.23135  0.15507  0.90291  Biso   1.000  H
  H224     1.0000 0.16265  0.21177  0.88891  Biso   1.000  H
  H225     1.0000 0.38315  0.46417  0.38131  Biso   1.000  H
  H226     1.0000 0.32335  0.40567  0.41791  Biso   1.000  H
  H227     1.0000 0.41335  0.31217  0.41691  Biso   1.000  H
  H228     1.0000 0.47315  0.37057  0.38051  Biso   1.000  H
  H229     1.0000 0.35515  0.62757  0.43391  Biso   1.000  H
  H230     1.0000 0.29485  0.63747  0.47671  Biso   1.000  H
  H231     1.0000 0.37225  0.74637  0.47091  Biso   1.000  H
  H232     1.0000 0.43265  0.73647  0.42811  Biso   1.000  H
  H233     1.0000 0.54315  0.50927  0.29551  Biso   1.000  H
  H234     1.0000 0.45185  0.56957  0.37051  Biso   1.000  H
  H235     1.0000 0.51315  0.69837  0.34351  Biso   1.000  H
  H236     1.0000 0.57145  0.68807  0.29891  Biso   1.000  H
  H237     1.0000 0.44185  0.51567  0.35911  Biso   1.000  H
  H238     1.0000 0.50225  0.45127  0.34351  Biso   1.000  H
  H239     1.0000 0.41075  0.61667  0.40291  Biso   1.000  H
  H240     1.0000 0.46745  0.69937  0.38891  Biso   1.000  H
  H241     1.0000 0.24215  0.14977  0.38131  Biso   1.000  H
  H242     1.0000 0.26535  0.17167  0.41791  Biso   1.000  H
  H243     1.0000 0.17635  0.26617  0.41691  Biso   1.000  H
  H244     1.0000 0.15295  0.24417  0.38051  Biso   1.000  H
  H245     1.0000 0.21755  0.93377  0.43391  Biso   1.000  H
  H246     1.0000 0.23505  0.88107  0.47671  Biso   1.000  H
  H247     1.0000 0.16345  0.77797  0.47091  Biso   1.000  H
  H248     1.0000 0.14585  0.83067  0.42811  Biso   1.000  H
  H249     1.0000 0.16795  0.19047  0.29551  Biso   1.000  H
  H250     1.0000 0.18425  0.05517  0.37051  Biso   1.000  H
  H251     1.0000 0.14995  0.95337  0.34351  Biso   1.000  H
  H252     1.0000 0.13625  0.00827  0.29891  Biso   1.000  H
  H253     1.0000 0.20565  0.12047  0.35911  Biso   1.000  H
  H254     1.0000 0.16085  0.20047  0.34351  Biso   1.000  H
  H255     1.0000 0.19295  0.97567  0.40291  Biso   1.000  H
  H256     1.0000 0.15025  0.90697  0.38891  Biso   1.000  H
  C241     1.0000 0.03681  0.03643  0.16139  Biso   1.000  C
  C242     1.0000 0.05855  0.00277  0.15011  Biso   1.000  C
  C243     1.0000 0.04535  0.98867  0.12831  Biso   1.000  C
  C244     1.0000 0.01051  0.00843  0.11759  Biso   1.000  C
  C245     1.0000 0.98885  0.04217  0.12871  Biso   1.000  C
  C246     1.0000 0.00195  0.05607  0.15071  Biso   1.000  C
  C247     1.0000 0.01055  0.09117  0.28771  Biso   1.000  C
  C248     1.0000 0.01335  0.12657  0.25391  Biso   1.000  C
  C249     1.0000 0.34418  0.05170  0.11185  Biso   1.000  C
  C250     1.0000 0.32905  0.02497  0.09731  Biso   1.000  C
  C251     1.0000 0.36065  0.01437  0.07171  Biso   1.000  C
  C252     1.0000 0.40733  0.03065  0.06055  Biso   1.000  C
  C253     1.0000 0.42245  0.05737  0.07511  Biso   1.000  C
  C254     1.0000 0.39085  0.06787  0.10071  Biso   1.000  C
  C255     1.0000 0.99755  0.99317  0.09491  Biso   1.000  C
  C256     1.0000 0.44295  0.01967  0.03511  Biso   1.000  C
  C257     1.0000 0.13305  0.08817  0.25651  Biso   1.000  C
  C258     1.0000 0.08631  0.08243  0.26119  Biso   1.000  C
  C259     1.0000 0.07245  0.06757  0.23991  Biso   1.000  C
  C260     1.0000 0.10526  0.05848  0.21409  Biso   1.000  C
  C261     1.0000 0.15196  0.06418  0.20949  Biso   1.000  C
  C262     1.0000 0.16585  0.07907  0.23071  Biso   1.000  C
  C263     1.0000 0.18625  0.05667  0.18231  Biso   1.000  C
  C264     1.0000 0.23395  0.06227  0.17631  Biso   1.000  C
  C265     1.0000 0.24705  0.07727  0.19831  Biso   1.000  C
  C266     1.0000 0.21375  0.08567  0.22551  Biso   1.000  C
  C267     1.0000 0.09175  0.04287  0.19051  Biso   1.000  C
  C268     1.0000 0.05035  0.05327  0.18451  Biso   1.000  C
  C269     1.0000 0.26645  0.05267  0.14751  Biso   1.000  C
  C270     1.0000 0.31335  0.06557  0.13931  Biso   1.000  C
  C271     1.0000 0.80841  0.79743  0.16139  Biso   1.000  C
  C272     1.0000 0.79795  0.84237  0.15011  Biso   1.000  C
  C273     1.0000 0.83295  0.87827  0.12831  Biso   1.000  C
  C274     1.0000 0.87851  0.86923  0.11759  Biso   1.000  C
  C275     1.0000 0.88905  0.82437  0.12871  Biso   1.000  C
  C276     1.0000 0.85395  0.78847  0.15071  Biso   1.000  C
  C277     1.0000 0.70835  0.61637  0.28771  Biso   1.000  C
  C278     1.0000 0.73935  0.61478  0.25391  Biso   1.000  C
  C279     1.0000 0.55058  0.83170  0.11185  Biso   1.000  C
  C280     1.0000 0.58025  0.87297  0.09731  Biso   1.000  C
  C281     1.0000 0.57425  0.90917  0.07171  Biso   1.000  C
  C282     1.0000 0.53873  0.90405  0.06055  Biso   1.000  C
  C283     1.0000 0.50905  0.86277  0.07511  Biso   1.000  C
  C284     1.0000 0.51505  0.82667  0.10071  Biso   1.000  C
  C285     1.0000 0.91415  0.90717  0.09491  Biso   1.000  C
  C286     1.0000 0.52855  0.94047  0.03511  Biso   1.000  C
  C287     1.0000 0.61705  0.65057  0.25651  Biso   1.000  C
  C288     1.0000 0.65911  0.65163  0.26119  Biso   1.000  C
  C289     1.0000 0.69425  0.68777  0.23991  Biso   1.000  C
  C290     1.0000 0.68726  0.72268  0.21409  Biso   1.000  C
  C291     1.0000 0.64516  0.72158  0.20949  Biso   1.000  C
  C292     1.0000 0.61005  0.68547  0.23071  Biso   1.000  C
  C293     1.0000 0.63805  0.75627  0.18231  Biso   1.000  C
  C294     1.0000 0.59635  0.75667  0.17631  Biso   1.000  C
  C295     1.0000 0.56125  0.71967  0.19831  Biso   1.000  C
  C296     1.0000 0.56735  0.68407  0.22551  Biso   1.000  C
  C297     1.0000 0.72435  0.76187  0.19051  Biso   1.000  C
  C298     1.0000 0.77175  0.75748  0.18451  Biso   1.000  C
  C299     1.0000 0.59265  0.79507  0.14751  Biso   1.000  C
  C300     1.0000 0.55395  0.79037  0.13931  Biso   1.000  C
  C301     1.0000 0.29211  0.55273  0.66139  Biso   1.000  C
  C302     1.0000 0.25845  0.54227  0.65011  Biso   1.000  C
  C303     1.0000 0.24435  0.57727  0.62831  Biso   1.000  C
  C304     1.0000 0.26411  0.62283  0.61759  Biso   1.000  C
  C305     1.0000 0.29785  0.63337  0.62871  Biso   1.000  C
  C306     1.0000 0.31175  0.59827  0.65071  Biso   1.000  C
  C307     1.0000 0.34685  0.45267  0.78771  Biso   1.000  C
  C308     1.0000 0.38225  0.48367  0.75391  Biso   1.000  C
  C309     1.0000 0.30738  0.29490  0.61185  Biso   1.000  C
  C310     1.0000 0.28065  0.32457  0.59731  Biso   1.000  C
  C311     1.0000 0.27005  0.31857  0.57171  Biso   1.000  C
  C312     1.0000 0.28633  0.28305  0.56055  Biso   1.000  C
  C313     1.0000 0.31305  0.25337  0.57511  Biso   1.000  C
  C314     1.0000 0.32355  0.25937  0.60071  Biso   1.000  C
  C315     1.0000 0.24885  0.65847  0.59491  Biso   1.000  C
  C316     1.0000 0.27535  0.27287  0.53511  Biso   1.000  C
  C317     1.0000 0.34385  0.36137  0.75651  Biso   1.000  C
  C318     1.0000 0.33811  0.40343  0.76119  Biso   1.000  C
  C319     1.0000 0.32325  0.43857  0.73991  Biso   1.000  C
  C320     1.0000 0.31416  0.43158  0.71409  Biso   1.000  C
  C321     1.0000 0.31986  0.38948  0.70949  Biso   1.000  C
  C322     1.0000 0.33475  0.35437  0.73071  Biso   1.000  C
  C323     1.0000 0.31235  0.38237  0.68231  Biso   1.000  C
  C324     1.0000 0.31795  0.34067  0.67631  Biso   1.000  C
  C325     1.0000 0.33295  0.30557  0.69831  Biso   1.000  C
  C326     1.0000 0.34135  0.31167  0.72551  Biso   1.000  C
  C327     1.0000 0.29855  0.46867  0.69051  Biso   1.000  C
  C328     1.0000 0.30895  0.51607  0.68451  Biso   1.000  C
  C329     1.0000 0.30835  0.33697  0.64751  Biso   1.000  C
  C330     1.0000 0.32125  0.29827  0.63931  Biso   1.000  C
  C331     1.0000 0.05311  0.78113  0.66139  Biso   1.000  C
  C332     1.0000 0.09805  0.80287  0.65011  Biso   1.000  C
  C333     1.0000 0.13395  0.78967  0.62831  Biso   1.000  C
  C334     1.0000 0.12491  0.75483  0.61759  Biso   1.000  C
  C335     1.0000 0.08005  0.73317  0.62871  Biso   1.000  C
  C336     1.0000 0.04415  0.74627  0.65071  Biso   1.000  C
  C337     1.0000 0.87205  0.75487  0.78771  Biso   1.000  C
  C338     1.0000 0.87045  0.75767  0.75391  Biso   1.000  C
  C339     1.0000 0.08738  0.08850  0.61185  Biso   1.000  C
  C340     1.0000 0.12865  0.07337  0.59731  Biso   1.000  C
  C341     1.0000 0.16485  0.10497  0.57171  Biso   1.000  C
  C342     1.0000 0.15973  0.15165  0.56055  Biso   1.000  C
  C343     1.0000 0.11845  0.16677  0.57511  Biso   1.000  C
  C344     1.0000 0.08235  0.13517  0.60071  Biso   1.000  C
  C345     1.0000 0.16285  0.74187  0.59491  Biso   1.000  C
  C346     1.0000 0.19615  0.18727  0.53511  Biso   1.000  C
  C347     1.0000 0.90625  0.87737  0.75651  Biso   1.000  C
  C348     1.0000 0.90731  0.83063  0.76119  Biso   1.000  C
  C349     1.0000 0.94345  0.81677  0.73991  Biso   1.000  C
  C350     1.0000 0.97836  0.84958  0.71409  Biso   1.000  C
  C351     1.0000 0.97726  0.89628  0.70949  Biso   1.000  C
  C352     1.0000 0.94115  0.91017  0.73071  Biso   1.000  C
  C353     1.0000 0.01195  0.93057  0.68231  Biso   1.000  C
  C354     1.0000 0.01235  0.97827  0.67631  Biso   1.000  C
  C355     1.0000 0.97535  0.99137  0.69831  Biso   1.000  C
  C356     1.0000 0.93975  0.95807  0.72551  Biso   1.000  C
  C357     1.0000 0.01755  0.83607  0.69051  Biso   1.000  C
  C358     1.0000 0.01315  0.79467  0.68451  Biso   1.000  C
  C359     1.0000 0.05075  0.01077  0.64751  Biso   1.000  C
  C360     1.0000 0.04605  0.05767  0.63931  Biso   1.000  C
  C361     1.0000 0.67889  0.93951  0.87723  Biso   1.000  C
  C362     1.0000 0.68935  0.97317  0.88851  Biso   1.000  C
  C363     1.0000 0.65435  0.98727  0.91031  Biso   1.000  C
  C364     1.0000 0.60879  0.96751  0.92103  Biso   1.000  C
  C365     1.0000 0.59825  0.93377  0.90991  Biso   1.000  C
  C366     1.0000 0.63335  0.91987  0.88791  Biso   1.000  C
  C367     1.0000 0.77895  0.88477  0.75091  Biso   1.000  C
  C368     1.0000 0.74795  0.84937  0.78471  Biso   1.000  C
  C369     1.0000 0.93672  0.92424  0.92677  Biso   1.000  C
  C370     1.0000 0.90705  0.95097  0.94131  Biso   1.000  C
  C371     1.0000 0.91305  0.96157  0.96691  Biso   1.000  C
  C372     1.0000 0.94857  0.94529  0.97807  Biso   1.000  C
  C373     1.0000 0.97825  0.91857  0.96351  Biso   1.000  C
  C374     1.0000 0.97225  0.90807  0.93791  Biso   1.000  C
  C375     1.0000 0.57315  0.98277  0.94371  Biso   1.000  C
  C376     1.0000 0.95875  0.95627  0.00351  Biso   1.000  C
  C377     1.0000 0.87025  0.88777  0.78211  Biso   1.000  C
  C378     1.0000 0.82819  0.89351  0.77743  Biso   1.000  C
  C379     1.0000 0.79305  0.90837  0.79871  Biso   1.000  C
  C380     1.0000 0.80004  0.91746  0.82453  Biso   1.000  C
  C381     1.0000 0.84214  0.91176  0.82913  Biso   1.000  C
  C382     1.0000 0.87725  0.89687  0.80791  Biso   1.000  C
  C383     1.0000 0.84925  0.91927  0.85631  Biso   1.000  C
  C384     1.0000 0.89095  0.91367  0.86231  Biso   1.000  C
  C385     1.0000 0.92605  0.89867  0.84031  Biso   1.000  C
  C386     1.0000 0.91995  0.89027  0.81311  Biso   1.000  C
  C387     1.0000 0.76295  0.93307  0.84811  Biso   1.000  C
  C388     1.0000 0.71555  0.92267  0.85411  Biso   1.000  C
  C389     1.0000 0.89465  0.92327  0.89111  Biso   1.000  C
  C390     1.0000 0.93335  0.91037  0.89931  Biso   1.000  C
  C391     1.0000 0.45049  0.17851  0.87723  Biso   1.000  C
  C392     1.0000 0.42875  0.13357  0.88851  Biso   1.000  C
  C393     1.0000 0.44195  0.09767  0.91031  Biso   1.000  C
  C394     1.0000 0.47679  0.10671  0.92103  Biso   1.000  C
  C395     1.0000 0.49845  0.15157  0.90991  Biso   1.000  C
  C396     1.0000 0.48535  0.18747  0.88791  Biso   1.000  C
  C397     1.0000 0.47675  0.35957  0.75091  Biso   1.000  C
  C398     1.0000 0.47395  0.36117  0.78471  Biso   1.000  C
  C399     1.0000 0.14312  0.14424  0.92677  Biso   1.000  C
  C400     1.0000 0.15825  0.10297  0.94131  Biso   1.000  C
  C401     1.0000 0.12665  0.06677  0.96691  Biso   1.000  C
  C402     1.0000 0.07997  0.07189  0.97807  Biso   1.000  C
  C403     1.0000 0.06485  0.11317  0.96351  Biso   1.000  C
  C404     1.0000 0.09645  0.14927  0.93791  Biso   1.000  C
  C405     1.0000 0.48975  0.06877  0.94371  Biso   1.000  C
  C406     1.0000 0.04435  0.03547  0.00351  Biso   1.000  C
  C407     1.0000 0.35425  0.32537  0.78211  Biso   1.000  C
  C408     1.0000 0.40099  0.32431  0.77743  Biso   1.000  C
  C409     1.0000 0.41485  0.28817  0.79871  Biso   1.000  C
  C410     1.0000 0.38204  0.25326  0.82453  Biso   1.000  C
  C411     1.0000 0.33534  0.25436  0.82913  Biso   1.000  C
  C412     1.0000 0.32145  0.29047  0.80791  Biso   1.000  C
  C413     1.0000 0.30105  0.21967  0.85631  Biso   1.000  C
  C414     1.0000 0.25335  0.21927  0.86231  Biso   1.000  C
  C415     1.0000 0.24025  0.25627  0.84031  Biso   1.000  C
  C416     1.0000 0.27355  0.29187  0.81311  Biso   1.000  C
  C417     1.0000 0.39555  0.21407  0.84811  Biso   1.000  C
  C418     1.0000 0.43695  0.21847  0.85411  Biso   1.000  C
  C419     1.0000 0.22085  0.18087  0.89111  Biso   1.000  C
  C420     1.0000 0.17395  0.18557  0.89931  Biso   1.000  C
  C421     1.0000 0.43419  0.42321  0.37723  Biso   1.000  C
  C422     1.0000 0.38925  0.43367  0.38851  Biso   1.000  C
  C423     1.0000 0.35335  0.39867  0.41031  Biso   1.000  C
  C424     1.0000 0.36239  0.35311  0.42103  Biso   1.000  C
  C425     1.0000 0.40725  0.34257  0.40991  Biso   1.000  C
  C426     1.0000 0.44315  0.37767  0.38791  Biso   1.000  C
  C427     1.0000 0.61525  0.52327  0.25091  Biso   1.000  C
  C428     1.0000 0.61685  0.49227  0.28471  Biso   1.000  C
  C429     1.0000 0.39992  0.68104  0.42677  Biso   1.000  C
  C430     1.0000 0.35865  0.65137  0.44131  Biso   1.000  C
  C431     1.0000 0.32245  0.65737  0.46691  Biso   1.000  C
  C432     1.0000 0.32757  0.69289  0.47807  Biso   1.000  C
  C433     1.0000 0.36885  0.72257  0.46351  Biso   1.000  C
  C434     1.0000 0.40495  0.71657  0.43791  Biso   1.000  C
  C435     1.0000 0.32445  0.31747  0.44371  Biso   1.000  C
  C436     1.0000 0.29115  0.70307  0.50351  Biso   1.000  C
  C437     1.0000 0.58105  0.61457  0.28211  Biso   1.000  C
  C438     1.0000 0.57999  0.57251  0.27743  Biso   1.000  C
  C439     1.0000 0.54385  0.53737  0.29871  Biso   1.000  C
  C440     1.0000 0.50894  0.54436  0.32453  Biso   1.000  C
  C441     1.0000 0.51004  0.58646  0.32913  Biso   1.000  C
  C442     1.0000 0.54615  0.62157  0.30791  Biso   1.000  C
  C443     1.0000 0.47535  0.59357  0.35631  Biso   1.000  C
  C444     1.0000 0.47495  0.63527  0.36231  Biso   1.000  C
  C445     1.0000 0.51195  0.67037  0.34031  Biso   1.000  C
  C446     1.0000 0.54755  0.66427  0.31311  Biso   1.000  C
  C447     1.0000 0.46975  0.50727  0.34811  Biso   1.000  C
  C448     1.0000 0.47415  0.45987  0.35411  Biso   1.000  C
  C449     1.0000 0.43655  0.63897  0.39111  Biso   1.000  C
  C450     1.0000 0.44125  0.67767  0.39931  Biso   1.000  C
  C451     1.0000 0.19519  0.19481  0.37723  Biso   1.000  C
  C452     1.0000 0.22885  0.17307  0.38851  Biso   1.000  C
  C453     1.0000 0.24295  0.18627  0.41031  Biso   1.000  C
  C454     1.0000 0.22319  0.22111  0.42103  Biso   1.000  C
  C455     1.0000 0.18945  0.24277  0.40991  Biso   1.000  C
  C456     1.0000 0.17555  0.22967  0.38791  Biso   1.000  C
  C457     1.0000 0.14045  0.22107  0.25091  Biso   1.000  C
  C458     1.0000 0.10505  0.21827  0.28471  Biso   1.000  C
  C459     1.0000 0.17992  0.88744  0.42677  Biso   1.000  C
  C460     1.0000 0.20665  0.90257  0.44131  Biso   1.000  C
  C461     1.0000 0.21725  0.87097  0.46691  Biso   1.000  C
  C462     1.0000 0.20097  0.82429  0.47807  Biso   1.000  C
  C463     1.0000 0.17425  0.80917  0.46351  Biso   1.000  C
  C464     1.0000 0.16375  0.84077  0.43791  Biso   1.000  C
  C465     1.0000 0.23845  0.23407  0.44371  Biso   1.000  C
  C466     1.0000 0.21195  0.78867  0.50351  Biso   1.000  C
  C467     1.0000 0.14345  0.09857  0.28211  Biso   1.000  C
  C468     1.0000 0.14919  0.14531  0.27743  Biso   1.000  C
  C469     1.0000 0.16405  0.15917  0.29871  Biso   1.000  C
  C470     1.0000 0.17314  0.12636  0.32453  Biso   1.000  C
  C471     1.0000 0.16744  0.07966  0.32913  Biso   1.000  C
  C472     1.0000 0.15255  0.06577  0.30791  Biso   1.000  C
  C473     1.0000 0.17495  0.04537  0.35631  Biso   1.000  C
  C474     1.0000 0.16935  0.99767  0.36231  Biso   1.000  C
  C475     1.0000 0.15435  0.98457  0.34031  Biso   1.000  C
  C476     1.0000 0.14595  0.01787  0.31311  Biso   1.000  C
  C477     1.0000 0.18875  0.13987  0.34811  Biso   1.000  C
  C478     1.0000 0.17835  0.18127  0.35411  Biso   1.000  C
  C479     1.0000 0.17895  0.96517  0.39111  Biso   1.000  C
  C480     1.0000 0.16605  0.91827  0.39931  Biso   1.000  C
  O41      1.0000 0.01665  0.96027  0.08591  Biso   1.000  O
  O42      1.0000 0.96695  0.01167  0.08311  Biso   1.000  O
  O43      1.0000 0.48575  0.03737  0.02631  Biso   1.000  O
  O44      1.0000 0.43465  0.99357  0.02051  Biso   1.000  O
  O45      1.0000 0.05655  0.08917  0.28751  Biso   1.000  O
  O46      1.0000 0.90405  0.94907  0.08591  Biso   1.000  O
  O47      1.0000 0.95655  0.90047  0.08311  Biso   1.000  O
  O48      1.0000 0.49455  0.93157  0.02631  Biso   1.000  O
  O49      1.0000 0.55145  0.98117  0.02051  Biso   1.000  O
  O50      1.0000 0.66255  0.61857  0.28751  Biso   1.000  O
  O51      1.0000 0.21595  0.64837  0.58591  Biso   1.000  O
  O52      1.0000 0.26735  0.70087  0.58311  Biso   1.000  O
  O53      1.0000 0.29305  0.23887  0.52631  Biso   1.000  O
  O54      1.0000 0.24925  0.29577  0.52051  Biso   1.000  O
  O55      1.0000 0.34485  0.40687  0.78751  Biso   1.000  O
  O56      1.0000 0.20475  0.76097  0.58591  Biso   1.000  O
  O57      1.0000 0.15615  0.71127  0.58311  Biso   1.000  O
  O58      1.0000 0.18725  0.23007  0.52631  Biso   1.000  O
  O59      1.0000 0.23685  0.17897  0.52051  Biso   1.000  O
  O60      1.0000 0.87425  0.80087  0.78751  Biso   1.000  O
  O61      1.0000 0.58325  0.01567  0.95271  Biso   1.000  O
  O62      1.0000 0.53075  0.96427  0.95551  Biso   1.000  O
  O63      1.0000 0.99275  0.93857  0.01231  Biso   1.000  O
  O64      1.0000 0.93585  0.98237  0.01811  Biso   1.000  O
  O65      1.0000 0.82475  0.88677  0.75111  Biso   1.000  O
  O66      1.0000 0.47065  0.02687  0.95271  Biso   1.000  O
  O67      1.0000 0.52035  0.07547  0.95551  Biso   1.000  O
  O68      1.0000 0.00155  0.04437  0.01231  Biso   1.000  O
  O69      1.0000 0.05265  0.99477  0.01811  Biso   1.000  O
  O70      1.0000 0.43075  0.35737  0.75111  Biso   1.000  O
  O71      1.0000 0.28255  0.32757  0.45271  Biso   1.000  O
  O72      1.0000 0.33115  0.27507  0.45551  Biso   1.000  O
  O73      1.0000 0.30005  0.73707  0.51231  Biso   1.000  O
  O74      1.0000 0.25045  0.68017  0.51811  Biso   1.000  O
  O75      1.0000 0.61305  0.56907  0.25111  Biso   1.000  O
  O76      1.0000 0.27135  0.21497  0.45271  Biso   1.000  O
  O77      1.0000 0.21995  0.26467  0.45551  Biso   1.000  O
  O78      1.0000 0.19425  0.74587  0.51231  Biso   1.000  O
  O79      1.0000 0.23805  0.79697  0.51811  Biso   1.000  O
