data_image0
_cell_length_a       36.4789
_cell_length_b       36.4789
_cell_length_c       36.4789
_cell_angle_alpha    90
_cell_angle_beta     90
_cell_angle_gamma    90

_symmetry_space_group_name_H-M    "P 1"
_symmetry_int_tables_number       1

loop_
  _symmetry_equiv_pos_as_xyz
  'x, y, z'

loop_
  _atom_site_label
  _atom_site_occupancy
  _atom_site_fract_x
  _atom_site_fract_y
  _atom_site_fract_z
  _atom_site_thermal_displace_type
  _atom_site_B_iso_or_equiv
  _atom_site_type_symbol
  C1       1.0000 0.37095  0.31683  0.33871  Biso   1.000  C
  C2       1.0000 0.36771  0.34532  0.31352  Biso   1.000  C
  C3       1.0000 0.40023  0.29390  0.33064  Biso   1.000  C
  C4       1.0000 0.41894  0.30537  0.29931  Biso   1.000  C
  C5       1.0000 0.40049  0.34450  0.27980  Biso   1.000  C
  C6       1.0000 0.40730  0.26971  0.34630  Biso   1.000  C
  C7       1.0000 0.24747  0.03598  0.29816  Biso   1.000  C
  C8       1.0000 0.29526  0.03722  0.24450  Biso   1.000  C
  C9       1.0000 0.21811  0.04968  0.28540  Biso   1.000  C
  C10      1.0000 0.37095  0.81683  0.83871  Biso   1.000  C
  C11      1.0000 0.36771  0.84532  0.81352  Biso   1.000  C
  C12      1.0000 0.40023  0.79390  0.83064  Biso   1.000  C
  C13      1.0000 0.41894  0.80537  0.79931  Biso   1.000  C
  C14      1.0000 0.40049  0.84450  0.77980  Biso   1.000  C
  C15      1.0000 0.40730  0.76971  0.84630  Biso   1.000  C
  C16      1.0000 0.24747  0.53598  0.79816  Biso   1.000  C
  C17      1.0000 0.29526  0.53722  0.74450  Biso   1.000  C
  C18      1.0000 0.21811  0.54968  0.78540  Biso   1.000  C
  C19      1.0000 0.87095  0.31683  0.83871  Biso   1.000  C
  C20      1.0000 0.86771  0.34532  0.81352  Biso   1.000  C
  C21      1.0000 0.90023  0.29390  0.83064  Biso   1.000  C
  C22      1.0000 0.91894  0.30537  0.79931  Biso   1.000  C
  C23      1.0000 0.90049  0.34450  0.77980  Biso   1.000  C
  C24      1.0000 0.90730  0.26971  0.84630  Biso   1.000  C
  C25      1.0000 0.74747  0.03598  0.79816  Biso   1.000  C
  C26      1.0000 0.79526  0.03722  0.74450  Biso   1.000  C
  C27      1.0000 0.71811  0.04968  0.78540  Biso   1.000  C
  C28      1.0000 0.87095  0.81683  0.33871  Biso   1.000  C
  C29      1.0000 0.86771  0.84532  0.31352  Biso   1.000  C
  C30      1.0000 0.90023  0.79390  0.33064  Biso   1.000  C
  C31      1.0000 0.91894  0.80537  0.29931  Biso   1.000  C
  C32      1.0000 0.90049  0.84450  0.27980  Biso   1.000  C
  C33      1.0000 0.90730  0.76971  0.34630  Biso   1.000  C
  C34      1.0000 0.74747  0.53598  0.29816  Biso   1.000  C
  C35      1.0000 0.79526  0.53722  0.24450  Biso   1.000  C
  C36      1.0000 0.71811  0.54968  0.28540  Biso   1.000  C
  C37      1.0000 0.62905  0.68317  0.33871  Biso   1.000  C
  C38      1.0000 0.63229  0.65468  0.31352  Biso   1.000  C
  C39      1.0000 0.59977  0.70610  0.33064  Biso   1.000  C
  C40      1.0000 0.58106  0.69463  0.29931  Biso   1.000  C
  C41      1.0000 0.59951  0.65550  0.27980  Biso   1.000  C
  C42      1.0000 0.59270  0.73029  0.34630  Biso   1.000  C
  C43      1.0000 0.75253  0.96402  0.29816  Biso   1.000  C
  C44      1.0000 0.70474  0.96278  0.24450  Biso   1.000  C
  C45      1.0000 0.78189  0.95032  0.28540  Biso   1.000  C
  C46      1.0000 0.62905  0.18317  0.83871  Biso   1.000  C
  C47      1.0000 0.63229  0.15468  0.81352  Biso   1.000  C
  C48      1.0000 0.59977  0.20610  0.83064  Biso   1.000  C
  C49      1.0000 0.58106  0.19463  0.79931  Biso   1.000  C
  C50      1.0000 0.59951  0.15550  0.77980  Biso   1.000  C
  C51      1.0000 0.59270  0.23029  0.84630  Biso   1.000  C
  C52      1.0000 0.75253  0.46402  0.79816  Biso   1.000  C
  C53      1.0000 0.70474  0.46278  0.74450  Biso   1.000  C
  C54      1.0000 0.78189  0.45032  0.78540  Biso   1.000  C
  C55      1.0000 0.12905  0.68317  0.83871  Biso   1.000  C
  C56      1.0000 0.13229  0.65468  0.81352  Biso   1.000  C
  C57      1.0000 0.09977  0.70610  0.83064  Biso   1.000  C
  C58      1.0000 0.08106  0.69463  0.79931  Biso   1.000  C
  C59      1.0000 0.09951  0.65550  0.77980  Biso   1.000  C
  C60      1.0000 0.09270  0.73029  0.84630  Biso   1.000  C
  C61      1.0000 0.25253  0.96402  0.79816  Biso   1.000  C
  C62      1.0000 0.20474  0.96278  0.74450  Biso   1.000  C
  C63      1.0000 0.28189  0.95032  0.78540  Biso   1.000  C
  C64      1.0000 0.12905  0.18317  0.33871  Biso   1.000  C
  C65      1.0000 0.13229  0.15468  0.31352  Biso   1.000  C
  C66      1.0000 0.09977  0.20610  0.33064  Biso   1.000  C
  C67      1.0000 0.08106  0.19463  0.29931  Biso   1.000  C
  C68      1.0000 0.09951  0.15550  0.27980  Biso   1.000  C
  C69      1.0000 0.09270  0.23029  0.34630  Biso   1.000  C
  C70      1.0000 0.25253  0.46402  0.29816  Biso   1.000  C
  C71      1.0000 0.20474  0.46278  0.24450  Biso   1.000  C
  C72      1.0000 0.28189  0.45032  0.28540  Biso   1.000  C
  C73      1.0000 0.62905  0.31683  0.66129  Biso   1.000  C
  C74      1.0000 0.63229  0.34532  0.68648  Biso   1.000  C
  C75      1.0000 0.59977  0.29390  0.66936  Biso   1.000  C
  C76      1.0000 0.58106  0.30537  0.70069  Biso   1.000  C
  C77      1.0000 0.59951  0.34450  0.72020  Biso   1.000  C
  C78      1.0000 0.59270  0.26971  0.65370  Biso   1.000  C
  C79      1.0000 0.75253  0.03598  0.70184  Biso   1.000  C
  C80      1.0000 0.70474  0.03722  0.75550  Biso   1.000  C
  C81      1.0000 0.78189  0.04968  0.71460  Biso   1.000  C
  C82      1.0000 0.62905  0.81683  0.16129  Biso   1.000  C
  C83      1.0000 0.63229  0.84532  0.18648  Biso   1.000  C
  C84      1.0000 0.59977  0.79390  0.16936  Biso   1.000  C
  C85      1.0000 0.58106  0.80537  0.20069  Biso   1.000  C
  C86      1.0000 0.59951  0.84450  0.22020  Biso   1.000  C
  C87      1.0000 0.59270  0.76971  0.15370  Biso   1.000  C
  C88      1.0000 0.75253  0.53598  0.20184  Biso   1.000  C
  C89      1.0000 0.70474  0.53722  0.25550  Biso   1.000  C
  C90      1.0000 0.78189  0.54968  0.21460  Biso   1.000  C
  C91      1.0000 0.12905  0.31683  0.16129  Biso   1.000  C
  C92      1.0000 0.13229  0.34532  0.18648  Biso   1.000  C
  C93      1.0000 0.09977  0.29390  0.16936  Biso   1.000  C
  C94      1.0000 0.08106  0.30537  0.20069  Biso   1.000  C
  C95      1.0000 0.09951  0.34450  0.22020  Biso   1.000  C
  C96      1.0000 0.09270  0.26971  0.15370  Biso   1.000  C
  C97      1.0000 0.25253  0.03598  0.20184  Biso   1.000  C
  C98      1.0000 0.20474  0.03722  0.25550  Biso   1.000  C
  C99      1.0000 0.28189  0.04968  0.21460  Biso   1.000  C
  C100     1.0000 0.12905  0.81683  0.66129  Biso   1.000  C
  C101     1.0000 0.13229  0.84532  0.68648  Biso   1.000  C
  C102     1.0000 0.09977  0.79390  0.66936  Biso   1.000  C
  C103     1.0000 0.08106  0.80537  0.70069  Biso   1.000  C
  C104     1.0000 0.09951  0.84450  0.72020  Biso   1.000  C
  C105     1.0000 0.09270  0.76971  0.65370  Biso   1.000  C
  C106     1.0000 0.25253  0.53598  0.70184  Biso   1.000  C
  C107     1.0000 0.20474  0.53722  0.75550  Biso   1.000  C
  C108     1.0000 0.28189  0.54968  0.71460  Biso   1.000  C
  C109     1.0000 0.37095  0.68317  0.66129  Biso   1.000  C
  C110     1.0000 0.36771  0.65468  0.68648  Biso   1.000  C
  C111     1.0000 0.40023  0.70610  0.66936  Biso   1.000  C
  C112     1.0000 0.41894  0.69463  0.70069  Biso   1.000  C
  C113     1.0000 0.40049  0.65550  0.72020  Biso   1.000  C
  C114     1.0000 0.40730  0.73029  0.65370  Biso   1.000  C
  C115     1.0000 0.24747  0.96402  0.70184  Biso   1.000  C
  C116     1.0000 0.29526  0.96278  0.75550  Biso   1.000  C
  C117     1.0000 0.21811  0.95032  0.71460  Biso   1.000  C
  C118     1.0000 0.37095  0.18317  0.16129  Biso   1.000  C
  C119     1.0000 0.36771  0.15468  0.18648  Biso   1.000  C
  C120     1.0000 0.40023  0.20610  0.16936  Biso   1.000  C
  C121     1.0000 0.41894  0.19463  0.20069  Biso   1.000  C
  C122     1.0000 0.40049  0.15550  0.22020  Biso   1.000  C
  C123     1.0000 0.40730  0.23029  0.15370  Biso   1.000  C
  C124     1.0000 0.24747  0.46402  0.20184  Biso   1.000  C
  C125     1.0000 0.29526  0.46278  0.25550  Biso   1.000  C
  C126     1.0000 0.21811  0.45032  0.21460  Biso   1.000  C
  C127     1.0000 0.87095  0.68317  0.16129  Biso   1.000  C
  C128     1.0000 0.86771  0.65468  0.18648  Biso   1.000  C
  C129     1.0000 0.90023  0.70610  0.16936  Biso   1.000  C
  C130     1.0000 0.91894  0.69463  0.20069  Biso   1.000  C
  C131     1.0000 0.90049  0.65550  0.22020  Biso   1.000  C
  C132     1.0000 0.90730  0.73029  0.15370  Biso   1.000  C
  C133     1.0000 0.74747  0.96402  0.20184  Biso   1.000  C
  C134     1.0000 0.79526  0.96278  0.25550  Biso   1.000  C
  C135     1.0000 0.71811  0.95032  0.21460  Biso   1.000  C
  C136     1.0000 0.87095  0.18317  0.66129  Biso   1.000  C
  C137     1.0000 0.86771  0.15468  0.68648  Biso   1.000  C
  C138     1.0000 0.90023  0.20610  0.66936  Biso   1.000  C
  C139     1.0000 0.91894  0.19463  0.70069  Biso   1.000  C
  C140     1.0000 0.90049  0.15550  0.72020  Biso   1.000  C
  C141     1.0000 0.90730  0.23029  0.65370  Biso   1.000  C
  C142     1.0000 0.74747  0.46402  0.70184  Biso   1.000  C
  C143     1.0000 0.79526  0.46278  0.75550  Biso   1.000  C
  C144     1.0000 0.71811  0.45032  0.71460  Biso   1.000  C
  C145     1.0000 0.33871  0.37095  0.31683  Biso   1.000  C
  C146     1.0000 0.31352  0.36771  0.34532  Biso   1.000  C
  C147     1.0000 0.33064  0.40023  0.29390  Biso   1.000  C
  C148     1.0000 0.29931  0.41894  0.30537  Biso   1.000  C
  C149     1.0000 0.27980  0.40049  0.34450  Biso   1.000  C
  C150     1.0000 0.34630  0.40730  0.26971  Biso   1.000  C
  C151     1.0000 0.29816  0.24747  0.03598  Biso   1.000  C
  C152     1.0000 0.24450  0.29526  0.03722  Biso   1.000  C
  C153     1.0000 0.28540  0.21811  0.04968  Biso   1.000  C
  C154     1.0000 0.33871  0.87095  0.81683  Biso   1.000  C
  C155     1.0000 0.31352  0.86771  0.84532  Biso   1.000  C
  C156     1.0000 0.33064  0.90023  0.79390  Biso   1.000  C
  C157     1.0000 0.29931  0.91894  0.80537  Biso   1.000  C
  C158     1.0000 0.27980  0.90049  0.84450  Biso   1.000  C
  C159     1.0000 0.34630  0.90730  0.76971  Biso   1.000  C
  C160     1.0000 0.29816  0.74747  0.53598  Biso   1.000  C
  C161     1.0000 0.24450  0.79526  0.53722  Biso   1.000  C
  C162     1.0000 0.28540  0.71811  0.54968  Biso   1.000  C
  C163     1.0000 0.83871  0.37095  0.81683  Biso   1.000  C
  C164     1.0000 0.81352  0.36771  0.84532  Biso   1.000  C
  C165     1.0000 0.83064  0.40023  0.79390  Biso   1.000  C
  C166     1.0000 0.79931  0.41894  0.80537  Biso   1.000  C
  C167     1.0000 0.77980  0.40049  0.84450  Biso   1.000  C
  C168     1.0000 0.84630  0.40730  0.76971  Biso   1.000  C
  C169     1.0000 0.79816  0.24747  0.53598  Biso   1.000  C
  C170     1.0000 0.74450  0.29526  0.53722  Biso   1.000  C
  C171     1.0000 0.78540  0.21811  0.54968  Biso   1.000  C
  C172     1.0000 0.83871  0.87095  0.31683  Biso   1.000  C
  C173     1.0000 0.81352  0.86771  0.34532  Biso   1.000  C
  C174     1.0000 0.83064  0.90023  0.29390  Biso   1.000  C
  C175     1.0000 0.79931  0.91894  0.30537  Biso   1.000  C
  C176     1.0000 0.77980  0.90049  0.34450  Biso   1.000  C
  C177     1.0000 0.84630  0.90730  0.26971  Biso   1.000  C
  C178     1.0000 0.79816  0.74747  0.03598  Biso   1.000  C
  C179     1.0000 0.74450  0.79526  0.03722  Biso   1.000  C
  C180     1.0000 0.78540  0.71811  0.04968  Biso   1.000  C
  C181     1.0000 0.33871  0.62905  0.68317  Biso   1.000  C
  C182     1.0000 0.31352  0.63229  0.65468  Biso   1.000  C
  C183     1.0000 0.33064  0.59977  0.70610  Biso   1.000  C
  C184     1.0000 0.29931  0.58106  0.69463  Biso   1.000  C
  C185     1.0000 0.27980  0.59951  0.65550  Biso   1.000  C
  C186     1.0000 0.34630  0.59270  0.73029  Biso   1.000  C
  C187     1.0000 0.29816  0.75253  0.96402  Biso   1.000  C
  C188     1.0000 0.24450  0.70474  0.96278  Biso   1.000  C
  C189     1.0000 0.28540  0.78189  0.95032  Biso   1.000  C
  C190     1.0000 0.33871  0.12905  0.18317  Biso   1.000  C
  C191     1.0000 0.31352  0.13229  0.15468  Biso   1.000  C
  C192     1.0000 0.33064  0.09977  0.20610  Biso   1.000  C
  C193     1.0000 0.29931  0.08106  0.19463  Biso   1.000  C
  C194     1.0000 0.27980  0.09951  0.15550  Biso   1.000  C
  C195     1.0000 0.34630  0.09270  0.23029  Biso   1.000  C
  C196     1.0000 0.29816  0.25253  0.46402  Biso   1.000  C
  C197     1.0000 0.24450  0.20474  0.46278  Biso   1.000  C
  C198     1.0000 0.28540  0.28189  0.45032  Biso   1.000  C
  C199     1.0000 0.83871  0.62905  0.18317  Biso   1.000  C
  C200     1.0000 0.81352  0.63229  0.15468  Biso   1.000  C
  C201     1.0000 0.83064  0.59977  0.20610  Biso   1.000  C
  C202     1.0000 0.79931  0.58106  0.19463  Biso   1.000  C
  C203     1.0000 0.77980  0.59951  0.15550  Biso   1.000  C
  C204     1.0000 0.84630  0.59270  0.23029  Biso   1.000  C
  C205     1.0000 0.79816  0.75253  0.46402  Biso   1.000  C
  C206     1.0000 0.74450  0.70474  0.46278  Biso   1.000  C
  C207     1.0000 0.78540  0.78189  0.45032  Biso   1.000  C
  C208     1.0000 0.83871  0.12905  0.68317  Biso   1.000  C
  C209     1.0000 0.81352  0.13229  0.65468  Biso   1.000  C
  C210     1.0000 0.83064  0.09977  0.70610  Biso   1.000  C
  C211     1.0000 0.79931  0.08106  0.69463  Biso   1.000  C
  C212     1.0000 0.77980  0.09951  0.65550  Biso   1.000  C
  C213     1.0000 0.84630  0.09270  0.73029  Biso   1.000  C
  C214     1.0000 0.79816  0.25253  0.96402  Biso   1.000  C
  C215     1.0000 0.74450  0.20474  0.96278  Biso   1.000  C
  C216     1.0000 0.78540  0.28189  0.95032  Biso   1.000  C
  C217     1.0000 0.66129  0.62905  0.31683  Biso   1.000  C
  C218     1.0000 0.68648  0.63229  0.34532  Biso   1.000  C
  C219     1.0000 0.66936  0.59977  0.29390  Biso   1.000  C
  C220     1.0000 0.70069  0.58106  0.30537  Biso   1.000  C
  C221     1.0000 0.72020  0.59951  0.34450  Biso   1.000  C
  C222     1.0000 0.65370  0.59270  0.26971  Biso   1.000  C
  C223     1.0000 0.70184  0.75253  0.03598  Biso   1.000  C
  C224     1.0000 0.75550  0.70474  0.03722  Biso   1.000  C
  C225     1.0000 0.71460  0.78189  0.04968  Biso   1.000  C
  C226     1.0000 0.66129  0.12905  0.81683  Biso   1.000  C
  C227     1.0000 0.68648  0.13229  0.84532  Biso   1.000  C
  C228     1.0000 0.66936  0.09977  0.79390  Biso   1.000  C
  C229     1.0000 0.70069  0.08106  0.80537  Biso   1.000  C
  C230     1.0000 0.72020  0.09951  0.84450  Biso   1.000  C
  C231     1.0000 0.65370  0.09270  0.76971  Biso   1.000  C
  C232     1.0000 0.70184  0.25253  0.53598  Biso   1.000  C
  C233     1.0000 0.75550  0.20474  0.53722  Biso   1.000  C
  C234     1.0000 0.71460  0.28189  0.54968  Biso   1.000  C
  C235     1.0000 0.16129  0.62905  0.81683  Biso   1.000  C
  C236     1.0000 0.18648  0.63229  0.84532  Biso   1.000  C
  C237     1.0000 0.16936  0.59977  0.79390  Biso   1.000  C
  C238     1.0000 0.20069  0.58106  0.80537  Biso   1.000  C
  C239     1.0000 0.22020  0.59951  0.84450  Biso   1.000  C
  C240     1.0000 0.15370  0.59270  0.76971  Biso   1.000  C
  C241     1.0000 0.20184  0.75253  0.53598  Biso   1.000  C
  C242     1.0000 0.25550  0.70474  0.53722  Biso   1.000  C
  C243     1.0000 0.21460  0.78189  0.54968  Biso   1.000  C
  C244     1.0000 0.16129  0.12905  0.31683  Biso   1.000  C
  C245     1.0000 0.18648  0.13229  0.34532  Biso   1.000  C
  C246     1.0000 0.16936  0.09977  0.29390  Biso   1.000  C
  C247     1.0000 0.20069  0.08106  0.30537  Biso   1.000  C
  C248     1.0000 0.22020  0.09951  0.34450  Biso   1.000  C
  C249     1.0000 0.15370  0.09270  0.26971  Biso   1.000  C
  C250     1.0000 0.20184  0.25253  0.03598  Biso   1.000  C
  C251     1.0000 0.25550  0.20474  0.03722  Biso   1.000  C
  C252     1.0000 0.21460  0.28189  0.04968  Biso   1.000  C
  C253     1.0000 0.66129  0.37095  0.68317  Biso   1.000  C
  C254     1.0000 0.68648  0.36771  0.65468  Biso   1.000  C
  C255     1.0000 0.66936  0.40023  0.70610  Biso   1.000  C
  C256     1.0000 0.70069  0.41894  0.69463  Biso   1.000  C
  C257     1.0000 0.72020  0.40049  0.65550  Biso   1.000  C
  C258     1.0000 0.65370  0.40730  0.73029  Biso   1.000  C
  C259     1.0000 0.70184  0.24747  0.96402  Biso   1.000  C
  C260     1.0000 0.75550  0.29526  0.96278  Biso   1.000  C
  C261     1.0000 0.71460  0.21811  0.95032  Biso   1.000  C
  C262     1.0000 0.66129  0.87095  0.18317  Biso   1.000  C
  C263     1.0000 0.68648  0.86771  0.15468  Biso   1.000  C
  C264     1.0000 0.66936  0.90023  0.20610  Biso   1.000  C
  C265     1.0000 0.70069  0.91894  0.19463  Biso   1.000  C
  C266     1.0000 0.72020  0.90049  0.15550  Biso   1.000  C
  C267     1.0000 0.65370  0.90730  0.23029  Biso   1.000  C
  C268     1.0000 0.70184  0.74747  0.46402  Biso   1.000  C
  C269     1.0000 0.75550  0.79526  0.46278  Biso   1.000  C
  C270     1.0000 0.71460  0.71811  0.45032  Biso   1.000  C
  C271     1.0000 0.16129  0.37095  0.18317  Biso   1.000  C
  C272     1.0000 0.18648  0.36771  0.15468  Biso   1.000  C
  C273     1.0000 0.16936  0.40023  0.20610  Biso   1.000  C
  C274     1.0000 0.20069  0.41894  0.19463  Biso   1.000  C
  C275     1.0000 0.22020  0.40049  0.15550  Biso   1.000  C
  C276     1.0000 0.15370  0.40730  0.23029  Biso   1.000  C
  C277     1.0000 0.20184  0.24747  0.46402  Biso   1.000  C
  C278     1.0000 0.25550  0.29526  0.46278  Biso   1.000  C
  C279     1.0000 0.21460  0.21811  0.45032  Biso   1.000  C
  C280     1.0000 0.16129  0.87095  0.68317  Biso   1.000  C
  C281     1.0000 0.18648  0.86771  0.65468  Biso   1.000  C
  C282     1.0000 0.16936  0.90023  0.70610  Biso   1.000  C
  C283     1.0000 0.20069  0.91894  0.69463  Biso   1.000  C
  C284     1.0000 0.22020  0.90049  0.65550  Biso   1.000  C
  C285     1.0000 0.15370  0.90730  0.73029  Biso   1.000  C
  C286     1.0000 0.20184  0.74747  0.96402  Biso   1.000  C
  C287     1.0000 0.25550  0.79526  0.96278  Biso   1.000  C
  C288     1.0000 0.21460  0.71811  0.95032  Biso   1.000  C
  C289     1.0000 0.31683  0.33871  0.37095  Biso   1.000  C
  C290     1.0000 0.34532  0.31352  0.36771  Biso   1.000  C
  C291     1.0000 0.29390  0.33064  0.40023  Biso   1.000  C
  C292     1.0000 0.30537  0.29931  0.41894  Biso   1.000  C
  C293     1.0000 0.34450  0.27980  0.40049  Biso   1.000  C
  C294     1.0000 0.26971  0.34630  0.40730  Biso   1.000  C
  C295     1.0000 0.03598  0.29816  0.24747  Biso   1.000  C
  C296     1.0000 0.03722  0.24450  0.29526  Biso   1.000  C
  C297     1.0000 0.04968  0.28540  0.21811  Biso   1.000  C
  C298     1.0000 0.31683  0.83871  0.87095  Biso   1.000  C
  C299     1.0000 0.34532  0.81352  0.86771  Biso   1.000  C
  C300     1.0000 0.29390  0.83064  0.90023  Biso   1.000  C
  C301     1.0000 0.30537  0.79931  0.91894  Biso   1.000  C
  C302     1.0000 0.34450  0.77980  0.90049  Biso   1.000  C
  C303     1.0000 0.26971  0.84630  0.90730  Biso   1.000  C
  C304     1.0000 0.03598  0.79816  0.74747  Biso   1.000  C
  C305     1.0000 0.03722  0.74450  0.79526  Biso   1.000  C
  C306     1.0000 0.04968  0.78540  0.71811  Biso   1.000  C
  C307     1.0000 0.81683  0.33871  0.87095  Biso   1.000  C
  C308     1.0000 0.84532  0.31352  0.86771  Biso   1.000  C
  C309     1.0000 0.79390  0.33064  0.90023  Biso   1.000  C
  C310     1.0000 0.80537  0.29931  0.91894  Biso   1.000  C
  C311     1.0000 0.84450  0.27980  0.90049  Biso   1.000  C
  C312     1.0000 0.76971  0.34630  0.90730  Biso   1.000  C
  C313     1.0000 0.53598  0.29816  0.74747  Biso   1.000  C
  C314     1.0000 0.53722  0.24450  0.79526  Biso   1.000  C
  C315     1.0000 0.54968  0.28540  0.71811  Biso   1.000  C
  C316     1.0000 0.81683  0.83871  0.37095  Biso   1.000  C
  C317     1.0000 0.84532  0.81352  0.36771  Biso   1.000  C
  C318     1.0000 0.79390  0.83064  0.40023  Biso   1.000  C
  C319     1.0000 0.80537  0.79931  0.41894  Biso   1.000  C
  C320     1.0000 0.84450  0.77980  0.40049  Biso   1.000  C
  C321     1.0000 0.76971  0.84630  0.40730  Biso   1.000  C
  C322     1.0000 0.53598  0.79816  0.24747  Biso   1.000  C
  C323     1.0000 0.53722  0.74450  0.29526  Biso   1.000  C
  C324     1.0000 0.54968  0.78540  0.21811  Biso   1.000  C
  C325     1.0000 0.68317  0.33871  0.62905  Biso   1.000  C
  C326     1.0000 0.65468  0.31352  0.63229  Biso   1.000  C
  C327     1.0000 0.70610  0.33064  0.59977  Biso   1.000  C
  C328     1.0000 0.69463  0.29931  0.58106  Biso   1.000  C
  C329     1.0000 0.65550  0.27980  0.59951  Biso   1.000  C
  C330     1.0000 0.73029  0.34630  0.59270  Biso   1.000  C
  C331     1.0000 0.96402  0.29816  0.75253  Biso   1.000  C
  C332     1.0000 0.96278  0.24450  0.70474  Biso   1.000  C
  C333     1.0000 0.95032  0.28540  0.78189  Biso   1.000  C
  C334     1.0000 0.68317  0.83871  0.12905  Biso   1.000  C
  C335     1.0000 0.65468  0.81352  0.13229  Biso   1.000  C
  C336     1.0000 0.70610  0.83064  0.09977  Biso   1.000  C
  C337     1.0000 0.69463  0.79931  0.08106  Biso   1.000  C
  C338     1.0000 0.65550  0.77980  0.09951  Biso   1.000  C
  C339     1.0000 0.73029  0.84630  0.09270  Biso   1.000  C
  C340     1.0000 0.96402  0.79816  0.25253  Biso   1.000  C
  C341     1.0000 0.96278  0.74450  0.20474  Biso   1.000  C
  C342     1.0000 0.95032  0.78540  0.28189  Biso   1.000  C
  C343     1.0000 0.18317  0.33871  0.12905  Biso   1.000  C
  C344     1.0000 0.15468  0.31352  0.13229  Biso   1.000  C
  C345     1.0000 0.20610  0.33064  0.09977  Biso   1.000  C
  C346     1.0000 0.19463  0.29931  0.08106  Biso   1.000  C
  C347     1.0000 0.15550  0.27980  0.09951  Biso   1.000  C
  C348     1.0000 0.23029  0.34630  0.09270  Biso   1.000  C
  C349     1.0000 0.46402  0.29816  0.25253  Biso   1.000  C
  C350     1.0000 0.46278  0.24450  0.20474  Biso   1.000  C
  C351     1.0000 0.45032  0.28540  0.28189  Biso   1.000  C
  C352     1.0000 0.18317  0.83871  0.62905  Biso   1.000  C
  C353     1.0000 0.15468  0.81352  0.63229  Biso   1.000  C
  C354     1.0000 0.20610  0.83064  0.59977  Biso   1.000  C
  C355     1.0000 0.19463  0.79931  0.58106  Biso   1.000  C
  C356     1.0000 0.15550  0.77980  0.59951  Biso   1.000  C
  C357     1.0000 0.23029  0.84630  0.59270  Biso   1.000  C
  C358     1.0000 0.46402  0.79816  0.75253  Biso   1.000  C
  C359     1.0000 0.46278  0.74450  0.70474  Biso   1.000  C
  C360     1.0000 0.45032  0.78540  0.78189  Biso   1.000  C
  C361     1.0000 0.31683  0.66129  0.62905  Biso   1.000  C
  C362     1.0000 0.34532  0.68648  0.63229  Biso   1.000  C
  C363     1.0000 0.29390  0.66936  0.59977  Biso   1.000  C
  C364     1.0000 0.30537  0.70069  0.58106  Biso   1.000  C
  C365     1.0000 0.34450  0.72020  0.59951  Biso   1.000  C
  C366     1.0000 0.26971  0.65370  0.59270  Biso   1.000  C
  C367     1.0000 0.03598  0.70184  0.75253  Biso   1.000  C
  C368     1.0000 0.03722  0.75550  0.70474  Biso   1.000  C
  C369     1.0000 0.04968  0.71460  0.78189  Biso   1.000  C
  C370     1.0000 0.31683  0.16129  0.12905  Biso   1.000  C
  C371     1.0000 0.34532  0.18648  0.13229  Biso   1.000  C
  C372     1.0000 0.29390  0.16936  0.09977  Biso   1.000  C
  C373     1.0000 0.30537  0.20069  0.08106  Biso   1.000  C
  C374     1.0000 0.34450  0.22020  0.09951  Biso   1.000  C
  C375     1.0000 0.26971  0.15370  0.09270  Biso   1.000  C
  C376     1.0000 0.03598  0.20184  0.25253  Biso   1.000  C
  C377     1.0000 0.03722  0.25550  0.20474  Biso   1.000  C
  C378     1.0000 0.04968  0.21460  0.28189  Biso   1.000  C
  C379     1.0000 0.81683  0.66129  0.12905  Biso   1.000  C
  C380     1.0000 0.84532  0.68648  0.13229  Biso   1.000  C
  C381     1.0000 0.79390  0.66936  0.09977  Biso   1.000  C
  C382     1.0000 0.80537  0.70069  0.08106  Biso   1.000  C
  C383     1.0000 0.84450  0.72020  0.09951  Biso   1.000  C
  C384     1.0000 0.76971  0.65370  0.09270  Biso   1.000  C
  C385     1.0000 0.53598  0.70184  0.25253  Biso   1.000  C
  C386     1.0000 0.53722  0.75550  0.20474  Biso   1.000  C
  C387     1.0000 0.54968  0.71460  0.28189  Biso   1.000  C
  C388     1.0000 0.81683  0.16129  0.62905  Biso   1.000  C
  C389     1.0000 0.84532  0.18648  0.63229  Biso   1.000  C
  C390     1.0000 0.79390  0.16936  0.59977  Biso   1.000  C
  C391     1.0000 0.80537  0.20069  0.58106  Biso   1.000  C
  C392     1.0000 0.84450  0.22020  0.59951  Biso   1.000  C
  C393     1.0000 0.76971  0.15370  0.59270  Biso   1.000  C
  C394     1.0000 0.53598  0.20184  0.75253  Biso   1.000  C
  C395     1.0000 0.53722  0.25550  0.70474  Biso   1.000  C
  C396     1.0000 0.54968  0.21460  0.78189  Biso   1.000  C
  C397     1.0000 0.68317  0.66129  0.37095  Biso   1.000  C
  C398     1.0000 0.65468  0.68648  0.36771  Biso   1.000  C
  C399     1.0000 0.70610  0.66936  0.40023  Biso   1.000  C
  C400     1.0000 0.69463  0.70069  0.41894  Biso   1.000  C
  C401     1.0000 0.65550  0.72020  0.40049  Biso   1.000  C
  C402     1.0000 0.73029  0.65370  0.40730  Biso   1.000  C
  C403     1.0000 0.96402  0.70184  0.24747  Biso   1.000  C
  C404     1.0000 0.96278  0.75550  0.29526  Biso   1.000  C
  C405     1.0000 0.95032  0.71460  0.21811  Biso   1.000  C
  C406     1.0000 0.68317  0.16129  0.87095  Biso   1.000  C
  C407     1.0000 0.65468  0.18648  0.86771  Biso   1.000  C
  C408     1.0000 0.70610  0.16936  0.90023  Biso   1.000  C
  C409     1.0000 0.69463  0.20069  0.91894  Biso   1.000  C
  C410     1.0000 0.65550  0.22020  0.90049  Biso   1.000  C
  C411     1.0000 0.73029  0.15370  0.90730  Biso   1.000  C
  C412     1.0000 0.96402  0.20184  0.74747  Biso   1.000  C
  C413     1.0000 0.96278  0.25550  0.79526  Biso   1.000  C
  C414     1.0000 0.95032  0.21460  0.71811  Biso   1.000  C
  C415     1.0000 0.18317  0.66129  0.87095  Biso   1.000  C
  C416     1.0000 0.15468  0.68648  0.86771  Biso   1.000  C
  C417     1.0000 0.20610  0.66936  0.90023  Biso   1.000  C
  C418     1.0000 0.19463  0.70069  0.91894  Biso   1.000  C
  C419     1.0000 0.15550  0.72020  0.90049  Biso   1.000  C
  C420     1.0000 0.23029  0.65370  0.90730  Biso   1.000  C
  C421     1.0000 0.46402  0.70184  0.74747  Biso   1.000  C
  C422     1.0000 0.46278  0.75550  0.79526  Biso   1.000  C
  C423     1.0000 0.45032  0.71460  0.71811  Biso   1.000  C
  C424     1.0000 0.18317  0.16129  0.37095  Biso   1.000  C
  C425     1.0000 0.15468  0.18648  0.36771  Biso   1.000  C
  C426     1.0000 0.20610  0.16936  0.40023  Biso   1.000  C
  C427     1.0000 0.19463  0.20069  0.41894  Biso   1.000  C
  C428     1.0000 0.15550  0.22020  0.40049  Biso   1.000  C
  C429     1.0000 0.23029  0.15370  0.40730  Biso   1.000  C
  C430     1.0000 0.46402  0.20184  0.24747  Biso   1.000  C
  C431     1.0000 0.46278  0.25550  0.29526  Biso   1.000  C
  C432     1.0000 0.45032  0.21460  0.21811  Biso   1.000  C
  C433     1.0000 0.31683  0.37095  0.66129  Biso   1.000  C
  C434     1.0000 0.34532  0.36771  0.68648  Biso   1.000  C
  C435     1.0000 0.29390  0.40023  0.66936  Biso   1.000  C
  C436     1.0000 0.30537  0.41894  0.70069  Biso   1.000  C
  C437     1.0000 0.34450  0.40049  0.72020  Biso   1.000  C
  C438     1.0000 0.26971  0.40730  0.65370  Biso   1.000  C
  C439     1.0000 0.03598  0.24747  0.70184  Biso   1.000  C
  C440     1.0000 0.03722  0.29526  0.75550  Biso   1.000  C
  C441     1.0000 0.04968  0.21811  0.71460  Biso   1.000  C
  C442     1.0000 0.31683  0.87095  0.16129  Biso   1.000  C
  C443     1.0000 0.34532  0.86771  0.18648  Biso   1.000  C
  C444     1.0000 0.29390  0.90023  0.16936  Biso   1.000  C
  C445     1.0000 0.30537  0.91894  0.20069  Biso   1.000  C
  C446     1.0000 0.34450  0.90049  0.22020  Biso   1.000  C
  C447     1.0000 0.26971  0.90730  0.15370  Biso   1.000  C
  C448     1.0000 0.03598  0.74747  0.20184  Biso   1.000  C
  C449     1.0000 0.03722  0.79526  0.25550  Biso   1.000  C
  C450     1.0000 0.04968  0.71811  0.21460  Biso   1.000  C
  C451     1.0000 0.81683  0.37095  0.16129  Biso   1.000  C
  C452     1.0000 0.84532  0.36771  0.18648  Biso   1.000  C
  C453     1.0000 0.79390  0.40023  0.16936  Biso   1.000  C
  C454     1.0000 0.80537  0.41894  0.20069  Biso   1.000  C
  C455     1.0000 0.84450  0.40049  0.22020  Biso   1.000  C
  C456     1.0000 0.76971  0.40730  0.15370  Biso   1.000  C
  C457     1.0000 0.53598  0.24747  0.20184  Biso   1.000  C
  C458     1.0000 0.53722  0.29526  0.25550  Biso   1.000  C
  C459     1.0000 0.54968  0.21811  0.21460  Biso   1.000  C
  C460     1.0000 0.81683  0.87095  0.66129  Biso   1.000  C
  C461     1.0000 0.84532  0.86771  0.68648  Biso   1.000  C
  C462     1.0000 0.79390  0.90023  0.66936  Biso   1.000  C
  C463     1.0000 0.80537  0.91894  0.70069  Biso   1.000  C
  C464     1.0000 0.84450  0.90049  0.72020  Biso   1.000  C
  C465     1.0000 0.76971  0.90730  0.65370  Biso   1.000  C
  C466     1.0000 0.53598  0.74747  0.70184  Biso   1.000  C
  C467     1.0000 0.53722  0.79526  0.75550  Biso   1.000  C
  C468     1.0000 0.54968  0.71811  0.71460  Biso   1.000  C
  C469     1.0000 0.68317  0.62905  0.66129  Biso   1.000  C
  C470     1.0000 0.65468  0.63229  0.68648  Biso   1.000  C
  C471     1.0000 0.70610  0.59977  0.66936  Biso   1.000  C
  C472     1.0000 0.69463  0.58106  0.70069  Biso   1.000  C
  C473     1.0000 0.65550  0.59951  0.72020  Biso   1.000  C
  C474     1.0000 0.73029  0.59270  0.65370  Biso   1.000  C
  C475     1.0000 0.96402  0.75253  0.70184  Biso   1.000  C
  C476     1.0000 0.96278  0.70474  0.75550  Biso   1.000  C
  C477     1.0000 0.95032  0.78189  0.71460  Biso   1.000  C
  C478     1.0000 0.68317  0.12905  0.16129  Biso   1.000  C
  C479     1.0000 0.65468  0.13229  0.18648  Biso   1.000  C
  C480     1.0000 0.70610  0.09977  0.16936  Biso   1.000  C
  C481     1.0000 0.69463  0.08106  0.20069  Biso   1.000  C
  C482     1.0000 0.65550  0.09951  0.22020  Biso   1.000  C
  C483     1.0000 0.73029  0.09270  0.15370  Biso   1.000  C
  C484     1.0000 0.96402  0.25253  0.20184  Biso   1.000  C
  C485     1.0000 0.96278  0.20474  0.25550  Biso   1.000  C
  C486     1.0000 0.95032  0.28189  0.21460  Biso   1.000  C
  C487     1.0000 0.18317  0.62905  0.16129  Biso   1.000  C
  C488     1.0000 0.15468  0.63229  0.18648  Biso   1.000  C
  C489     1.0000 0.20610  0.59977  0.16936  Biso   1.000  C
  C490     1.0000 0.19463  0.58106  0.20069  Biso   1.000  C
  C491     1.0000 0.15550  0.59951  0.22020  Biso   1.000  C
  C492     1.0000 0.23029  0.59270  0.15370  Biso   1.000  C
  C493     1.0000 0.46402  0.75253  0.20184  Biso   1.000  C
  C494     1.0000 0.46278  0.70474  0.25550  Biso   1.000  C
  C495     1.0000 0.45032  0.78189  0.21460  Biso   1.000  C
  C496     1.0000 0.18317  0.12905  0.66129  Biso   1.000  C
  C497     1.0000 0.15468  0.13229  0.68648  Biso   1.000  C
  C498     1.0000 0.20610  0.09977  0.66936  Biso   1.000  C
  C499     1.0000 0.19463  0.08106  0.70069  Biso   1.000  C
  C500     1.0000 0.15550  0.09951  0.72020  Biso   1.000  C
  C501     1.0000 0.23029  0.09270  0.65370  Biso   1.000  C
  C502     1.0000 0.46402  0.25253  0.70184  Biso   1.000  C
  C503     1.0000 0.46278  0.20474  0.75550  Biso   1.000  C
  C504     1.0000 0.45032  0.28189  0.71460  Biso   1.000  C
  C505     1.0000 0.31683  0.62905  0.33871  Biso   1.000  C
  C506     1.0000 0.34532  0.63229  0.31352  Biso   1.000  C
  C507     1.0000 0.29390  0.59977  0.33064  Biso   1.000  C
  C508     1.0000 0.30537  0.58106  0.29931  Biso   1.000  C
  C509     1.0000 0.34450  0.59951  0.27980  Biso   1.000  C
  C510     1.0000 0.26971  0.59270  0.34630  Biso   1.000  C
  C511     1.0000 0.03598  0.75253  0.29816  Biso   1.000  C
  C512     1.0000 0.03722  0.70474  0.24450  Biso   1.000  C
  C513     1.0000 0.04968  0.78189  0.28540  Biso   1.000  C
  C514     1.0000 0.31683  0.12905  0.83871  Biso   1.000  C
  C515     1.0000 0.34532  0.13229  0.81352  Biso   1.000  C
  C516     1.0000 0.29390  0.09977  0.83064  Biso   1.000  C
  C517     1.0000 0.30537  0.08106  0.79931  Biso   1.000  C
  C518     1.0000 0.34450  0.09951  0.77980  Biso   1.000  C
  C519     1.0000 0.26971  0.09270  0.84630  Biso   1.000  C
  C520     1.0000 0.03598  0.25253  0.79816  Biso   1.000  C
  C521     1.0000 0.03722  0.20474  0.74450  Biso   1.000  C
  C522     1.0000 0.04968  0.28189  0.78540  Biso   1.000  C
  C523     1.0000 0.81683  0.62905  0.83871  Biso   1.000  C
  C524     1.0000 0.84532  0.63229  0.81352  Biso   1.000  C
  C525     1.0000 0.79390  0.59977  0.83064  Biso   1.000  C
  C526     1.0000 0.80537  0.58106  0.79931  Biso   1.000  C
  C527     1.0000 0.84450  0.59951  0.77980  Biso   1.000  C
  C528     1.0000 0.76971  0.59270  0.84630  Biso   1.000  C
  C529     1.0000 0.53598  0.75253  0.79816  Biso   1.000  C
  C530     1.0000 0.53722  0.70474  0.74450  Biso   1.000  C
  C531     1.0000 0.54968  0.78189  0.78540  Biso   1.000  C
  C532     1.0000 0.81683  0.12905  0.33871  Biso   1.000  C
  C533     1.0000 0.84532  0.13229  0.31352  Biso   1.000  C
  C534     1.0000 0.79390  0.09977  0.33064  Biso   1.000  C
  C535     1.0000 0.80537  0.08106  0.29931  Biso   1.000  C
  C536     1.0000 0.84450  0.09951  0.27980  Biso   1.000  C
  C537     1.0000 0.76971  0.09270  0.34630  Biso   1.000  C
  C538     1.0000 0.53598  0.25253  0.29816  Biso   1.000  C
  C539     1.0000 0.53722  0.20474  0.24450  Biso   1.000  C
  C540     1.0000 0.54968  0.28189  0.28540  Biso   1.000  C
  C541     1.0000 0.68317  0.37095  0.33871  Biso   1.000  C
  C542     1.0000 0.65468  0.36771  0.31352  Biso   1.000  C
  C543     1.0000 0.70610  0.40023  0.33064  Biso   1.000  C
  C544     1.0000 0.69463  0.41894  0.29931  Biso   1.000  C
  C545     1.0000 0.65550  0.40049  0.27980  Biso   1.000  C
  C546     1.0000 0.73029  0.40730  0.34630  Biso   1.000  C
  C547     1.0000 0.96402  0.24747  0.29816  Biso   1.000  C
  C548     1.0000 0.96278  0.29526  0.24450  Biso   1.000  C
  C549     1.0000 0.95032  0.21811  0.28540  Biso   1.000  C
  C550     1.0000 0.68317  0.87095  0.83871  Biso   1.000  C
  C551     1.0000 0.65468  0.86771  0.81352  Biso   1.000  C
  C552     1.0000 0.70610  0.90023  0.83064  Biso   1.000  C
  C553     1.0000 0.69463  0.91894  0.79931  Biso   1.000  C
  C554     1.0000 0.65550  0.90049  0.77980  Biso   1.000  C
  C555     1.0000 0.73029  0.90730  0.84630  Biso   1.000  C
  C556     1.0000 0.96402  0.74747  0.79816  Biso   1.000  C
  C557     1.0000 0.96278  0.79526  0.74450  Biso   1.000  C
  C558     1.0000 0.95032  0.71811  0.78540  Biso   1.000  C
  C559     1.0000 0.18317  0.37095  0.83871  Biso   1.000  C
  C560     1.0000 0.15468  0.36771  0.81352  Biso   1.000  C
  C561     1.0000 0.20610  0.40023  0.83064  Biso   1.000  C
  C562     1.0000 0.19463  0.41894  0.79931  Biso   1.000  C
  C563     1.0000 0.15550  0.40049  0.77980  Biso   1.000  C
  C564     1.0000 0.23029  0.40730  0.84630  Biso   1.000  C
  C565     1.0000 0.46402  0.24747  0.79816  Biso   1.000  C
  C566     1.0000 0.46278  0.29526  0.74450  Biso   1.000  C
  C567     1.0000 0.45032  0.21811  0.78540  Biso   1.000  C
  C568     1.0000 0.18317  0.87095  0.33871  Biso   1.000  C
  C569     1.0000 0.15468  0.86771  0.31352  Biso   1.000  C
  C570     1.0000 0.20610  0.90023  0.33064  Biso   1.000  C
  C571     1.0000 0.19463  0.91894  0.29931  Biso   1.000  C
  C572     1.0000 0.15550  0.90049  0.27980  Biso   1.000  C
  C573     1.0000 0.23029  0.90730  0.34630  Biso   1.000  C
  C574     1.0000 0.46402  0.74747  0.29816  Biso   1.000  C
  C575     1.0000 0.46278  0.79526  0.24450  Biso   1.000  C
  C576     1.0000 0.45032  0.71811  0.28540  Biso   1.000  C
  C577     1.0000 0.37095  0.33871  0.68317  Biso   1.000  C
  C578     1.0000 0.36771  0.31352  0.65468  Biso   1.000  C
  C579     1.0000 0.40023  0.33064  0.70610  Biso   1.000  C
  C580     1.0000 0.41894  0.29931  0.69463  Biso   1.000  C
  C581     1.0000 0.40049  0.27980  0.65550  Biso   1.000  C
  C582     1.0000 0.40730  0.34630  0.73029  Biso   1.000  C
  C583     1.0000 0.24747  0.29816  0.96402  Biso   1.000  C
  C584     1.0000 0.29526  0.24450  0.96278  Biso   1.000  C
  C585     1.0000 0.21811  0.28540  0.95032  Biso   1.000  C
  C586     1.0000 0.37095  0.83871  0.18317  Biso   1.000  C
  C587     1.0000 0.36771  0.81352  0.15468  Biso   1.000  C
  C588     1.0000 0.40023  0.83064  0.20610  Biso   1.000  C
  C589     1.0000 0.41894  0.79931  0.19463  Biso   1.000  C
  C590     1.0000 0.40049  0.77980  0.15550  Biso   1.000  C
  C591     1.0000 0.40730  0.84630  0.23029  Biso   1.000  C
  C592     1.0000 0.24747  0.79816  0.46402  Biso   1.000  C
  C593     1.0000 0.29526  0.74450  0.46278  Biso   1.000  C
  C594     1.0000 0.21811  0.78540  0.45032  Biso   1.000  C
  C595     1.0000 0.87095  0.33871  0.18317  Biso   1.000  C
  C596     1.0000 0.86771  0.31352  0.15468  Biso   1.000  C
  C597     1.0000 0.90023  0.33064  0.20610  Biso   1.000  C
  C598     1.0000 0.91894  0.29931  0.19463  Biso   1.000  C
  C599     1.0000 0.90049  0.27980  0.15550  Biso   1.000  C
  C600     1.0000 0.90730  0.34630  0.23029  Biso   1.000  C
  C601     1.0000 0.74747  0.29816  0.46402  Biso   1.000  C
  C602     1.0000 0.79526  0.24450  0.46278  Biso   1.000  C
  C603     1.0000 0.71811  0.28540  0.45032  Biso   1.000  C
  C604     1.0000 0.87095  0.83871  0.68317  Biso   1.000  C
  C605     1.0000 0.86771  0.81352  0.65468  Biso   1.000  C
  C606     1.0000 0.90023  0.83064  0.70610  Biso   1.000  C
  C607     1.0000 0.91894  0.79931  0.69463  Biso   1.000  C
  C608     1.0000 0.90049  0.77980  0.65550  Biso   1.000  C
  C609     1.0000 0.90730  0.84630  0.73029  Biso   1.000  C
  C610     1.0000 0.74747  0.79816  0.96402  Biso   1.000  C
  C611     1.0000 0.79526  0.74450  0.96278  Biso   1.000  C
  C612     1.0000 0.71811  0.78540  0.95032  Biso   1.000  C
  C613     1.0000 0.62905  0.33871  0.31683  Biso   1.000  C
  C614     1.0000 0.63229  0.31352  0.34532  Biso   1.000  C
  C615     1.0000 0.59977  0.33064  0.29390  Biso   1.000  C
  C616     1.0000 0.58106  0.29931  0.30537  Biso   1.000  C
  C617     1.0000 0.59951  0.27980  0.34450  Biso   1.000  C
  C618     1.0000 0.59270  0.34630  0.26971  Biso   1.000  C
  C619     1.0000 0.75253  0.29816  0.03598  Biso   1.000  C
  C620     1.0000 0.70474  0.24450  0.03722  Biso   1.000  C
  C621     1.0000 0.78189  0.28540  0.04968  Biso   1.000  C
  C622     1.0000 0.62905  0.83871  0.81683  Biso   1.000  C
  C623     1.0000 0.63229  0.81352  0.84532  Biso   1.000  C
  C624     1.0000 0.59977  0.83064  0.79390  Biso   1.000  C
  C625     1.0000 0.58106  0.79931  0.80537  Biso   1.000  C
  C626     1.0000 0.59951  0.77980  0.84450  Biso   1.000  C
  C627     1.0000 0.59270  0.84630  0.76971  Biso   1.000  C
  C628     1.0000 0.75253  0.79816  0.53598  Biso   1.000  C
  C629     1.0000 0.70474  0.74450  0.53722  Biso   1.000  C
  C630     1.0000 0.78189  0.78540  0.54968  Biso   1.000  C
  C631     1.0000 0.12905  0.33871  0.81683  Biso   1.000  C
  C632     1.0000 0.13229  0.31352  0.84532  Biso   1.000  C
  C633     1.0000 0.09977  0.33064  0.79390  Biso   1.000  C
  C634     1.0000 0.08106  0.29931  0.80537  Biso   1.000  C
  C635     1.0000 0.09951  0.27980  0.84450  Biso   1.000  C
  C636     1.0000 0.09270  0.34630  0.76971  Biso   1.000  C
  C637     1.0000 0.25253  0.29816  0.53598  Biso   1.000  C
  C638     1.0000 0.20474  0.24450  0.53722  Biso   1.000  C
  C639     1.0000 0.28189  0.28540  0.54968  Biso   1.000  C
  C640     1.0000 0.12905  0.83871  0.31683  Biso   1.000  C
  C641     1.0000 0.13229  0.81352  0.34532  Biso   1.000  C
  C642     1.0000 0.09977  0.83064  0.29390  Biso   1.000  C
  C643     1.0000 0.08106  0.79931  0.30537  Biso   1.000  C
  C644     1.0000 0.09951  0.77980  0.34450  Biso   1.000  C
  C645     1.0000 0.09270  0.84630  0.26971  Biso   1.000  C
  C646     1.0000 0.25253  0.79816  0.03598  Biso   1.000  C
  C647     1.0000 0.20474  0.74450  0.03722  Biso   1.000  C
  C648     1.0000 0.28189  0.78540  0.04968  Biso   1.000  C
  C649     1.0000 0.62905  0.66129  0.68317  Biso   1.000  C
  C650     1.0000 0.63229  0.68648  0.65468  Biso   1.000  C
  C651     1.0000 0.59977  0.66936  0.70610  Biso   1.000  C
  C652     1.0000 0.58106  0.70069  0.69463  Biso   1.000  C
  C653     1.0000 0.59951  0.72020  0.65550  Biso   1.000  C
  C654     1.0000 0.59270  0.65370  0.73029  Biso   1.000  C
  C655     1.0000 0.75253  0.70184  0.96402  Biso   1.000  C
  C656     1.0000 0.70474  0.75550  0.96278  Biso   1.000  C
  C657     1.0000 0.78189  0.71460  0.95032  Biso   1.000  C
  C658     1.0000 0.62905  0.16129  0.18317  Biso   1.000  C
  C659     1.0000 0.63229  0.18648  0.15468  Biso   1.000  C
  C660     1.0000 0.59977  0.16936  0.20610  Biso   1.000  C
  C661     1.0000 0.58106  0.20069  0.19463  Biso   1.000  C
  C662     1.0000 0.59951  0.22020  0.15550  Biso   1.000  C
  C663     1.0000 0.59270  0.15370  0.23029  Biso   1.000  C
  C664     1.0000 0.75253  0.20184  0.46402  Biso   1.000  C
  C665     1.0000 0.70474  0.25550  0.46278  Biso   1.000  C
  C666     1.0000 0.78189  0.21460  0.45032  Biso   1.000  C
  C667     1.0000 0.12905  0.66129  0.18317  Biso   1.000  C
  C668     1.0000 0.13229  0.68648  0.15468  Biso   1.000  C
  C669     1.0000 0.09977  0.66936  0.20610  Biso   1.000  C
  C670     1.0000 0.08106  0.70069  0.19463  Biso   1.000  C
  C671     1.0000 0.09951  0.72020  0.15550  Biso   1.000  C
  C672     1.0000 0.09270  0.65370  0.23029  Biso   1.000  C
  C673     1.0000 0.25253  0.70184  0.46402  Biso   1.000  C
  C674     1.0000 0.20474  0.75550  0.46278  Biso   1.000  C
  C675     1.0000 0.28189  0.71460  0.45032  Biso   1.000  C
  C676     1.0000 0.12905  0.16129  0.68317  Biso   1.000  C
  C677     1.0000 0.13229  0.18648  0.65468  Biso   1.000  C
  C678     1.0000 0.09977  0.16936  0.70610  Biso   1.000  C
  C679     1.0000 0.08106  0.20069  0.69463  Biso   1.000  C
  C680     1.0000 0.09951  0.22020  0.65550  Biso   1.000  C
  C681     1.0000 0.09270  0.15370  0.73029  Biso   1.000  C
  C682     1.0000 0.25253  0.20184  0.96402  Biso   1.000  C
  C683     1.0000 0.20474  0.25550  0.96278  Biso   1.000  C
  C684     1.0000 0.28189  0.21460  0.95032  Biso   1.000  C
  C685     1.0000 0.37095  0.66129  0.31683  Biso   1.000  C
  C686     1.0000 0.36771  0.68648  0.34532  Biso   1.000  C
  C687     1.0000 0.40023  0.66936  0.29390  Biso   1.000  C
  C688     1.0000 0.41894  0.70069  0.30537  Biso   1.000  C
  C689     1.0000 0.40049  0.72020  0.34450  Biso   1.000  C
  C690     1.0000 0.40730  0.65370  0.26971  Biso   1.000  C
  C691     1.0000 0.24747  0.70184  0.03598  Biso   1.000  C
  C692     1.0000 0.29526  0.75550  0.03722  Biso   1.000  C
  C693     1.0000 0.21811  0.71460  0.04968  Biso   1.000  C
  C694     1.0000 0.37095  0.16129  0.81683  Biso   1.000  C
  C695     1.0000 0.36771  0.18648  0.84532  Biso   1.000  C
  C696     1.0000 0.40023  0.16936  0.79390  Biso   1.000  C
  C697     1.0000 0.41894  0.20069  0.80537  Biso   1.000  C
  C698     1.0000 0.40049  0.22020  0.84450  Biso   1.000  C
  C699     1.0000 0.40730  0.15370  0.76971  Biso   1.000  C
  C700     1.0000 0.24747  0.20184  0.53598  Biso   1.000  C
  C701     1.0000 0.29526  0.25550  0.53722  Biso   1.000  C
  C702     1.0000 0.21811  0.21460  0.54968  Biso   1.000  C
  C703     1.0000 0.87095  0.66129  0.81683  Biso   1.000  C
  C704     1.0000 0.86771  0.68648  0.84532  Biso   1.000  C
  C705     1.0000 0.90023  0.66936  0.79390  Biso   1.000  C
  C706     1.0000 0.91894  0.70069  0.80537  Biso   1.000  C
  C707     1.0000 0.90049  0.72020  0.84450  Biso   1.000  C
  C708     1.0000 0.90730  0.65370  0.76971  Biso   1.000  C
  C709     1.0000 0.74747  0.70184  0.53598  Biso   1.000  C
  C710     1.0000 0.79526  0.75550  0.53722  Biso   1.000  C
  C711     1.0000 0.71811  0.71460  0.54968  Biso   1.000  C
  C712     1.0000 0.87095  0.16129  0.31683  Biso   1.000  C
  C713     1.0000 0.86771  0.18648  0.34532  Biso   1.000  C
  C714     1.0000 0.90023  0.16936  0.29390  Biso   1.000  C
  C715     1.0000 0.91894  0.20069  0.30537  Biso   1.000  C
  C716     1.0000 0.90049  0.22020  0.34450  Biso   1.000  C
  C717     1.0000 0.90730  0.15370  0.26971  Biso   1.000  C
  C718     1.0000 0.74747  0.20184  0.03598  Biso   1.000  C
  C719     1.0000 0.79526  0.25550  0.03722  Biso   1.000  C
  C720     1.0000 0.71811  0.21460  0.04968  Biso   1.000  C
  C721     1.0000 0.33871  0.31683  0.62905  Biso   1.000  C
  C722     1.0000 0.31352  0.34532  0.63229  Biso   1.000  C
  C723     1.0000 0.33064  0.29390  0.59977  Biso   1.000  C
  C724     1.0000 0.29931  0.30537  0.58106  Biso   1.000  C
  C725     1.0000 0.27980  0.34450  0.59951  Biso   1.000  C
  C726     1.0000 0.34630  0.26971  0.59270  Biso   1.000  C
  C727     1.0000 0.29816  0.03598  0.75253  Biso   1.000  C
  C728     1.0000 0.24450  0.03722  0.70474  Biso   1.000  C
  C729     1.0000 0.28540  0.04968  0.78189  Biso   1.000  C
  C730     1.0000 0.33871  0.81683  0.12905  Biso   1.000  C
  C731     1.0000 0.31352  0.84532  0.13229  Biso   1.000  C
  C732     1.0000 0.33064  0.79390  0.09977  Biso   1.000  C
  C733     1.0000 0.29931  0.80537  0.08106  Biso   1.000  C
  C734     1.0000 0.27980  0.84450  0.09951  Biso   1.000  C
  C735     1.0000 0.34630  0.76971  0.09270  Biso   1.000  C
  C736     1.0000 0.29816  0.53598  0.25253  Biso   1.000  C
  C737     1.0000 0.24450  0.53722  0.20474  Biso   1.000  C
  C738     1.0000 0.28540  0.54968  0.28189  Biso   1.000  C
  C739     1.0000 0.83871  0.31683  0.12905  Biso   1.000  C
  C740     1.0000 0.81352  0.34532  0.13229  Biso   1.000  C
  C741     1.0000 0.83064  0.29390  0.09977  Biso   1.000  C
  C742     1.0000 0.79931  0.30537  0.08106  Biso   1.000  C
  C743     1.0000 0.77980  0.34450  0.09951  Biso   1.000  C
  C744     1.0000 0.84630  0.26971  0.09270  Biso   1.000  C
  C745     1.0000 0.79816  0.03598  0.25253  Biso   1.000  C
  C746     1.0000 0.74450  0.03722  0.20474  Biso   1.000  C
  C747     1.0000 0.78540  0.04968  0.28189  Biso   1.000  C
  C748     1.0000 0.83871  0.81683  0.62905  Biso   1.000  C
  C749     1.0000 0.81352  0.84532  0.63229  Biso   1.000  C
  C750     1.0000 0.83064  0.79390  0.59977  Biso   1.000  C
  C751     1.0000 0.79931  0.80537  0.58106  Biso   1.000  C
  C752     1.0000 0.77980  0.84450  0.59951  Biso   1.000  C
  C753     1.0000 0.84630  0.76971  0.59270  Biso   1.000  C
  C754     1.0000 0.79816  0.53598  0.75253  Biso   1.000  C
  C755     1.0000 0.74450  0.53722  0.70474  Biso   1.000  C
  C756     1.0000 0.78540  0.54968  0.78189  Biso   1.000  C
  C757     1.0000 0.33871  0.68317  0.37095  Biso   1.000  C
  C758     1.0000 0.31352  0.65468  0.36771  Biso   1.000  C
  C759     1.0000 0.33064  0.70610  0.40023  Biso   1.000  C
  C760     1.0000 0.29931  0.69463  0.41894  Biso   1.000  C
  C761     1.0000 0.27980  0.65550  0.40049  Biso   1.000  C
  C762     1.0000 0.34630  0.73029  0.40730  Biso   1.000  C
  C763     1.0000 0.29816  0.96402  0.24747  Biso   1.000  C
  C764     1.0000 0.24450  0.96278  0.29526  Biso   1.000  C
  C765     1.0000 0.28540  0.95032  0.21811  Biso   1.000  C
  C766     1.0000 0.33871  0.18317  0.87095  Biso   1.000  C
  C767     1.0000 0.31352  0.15468  0.86771  Biso   1.000  C
  C768     1.0000 0.33064  0.20610  0.90023  Biso   1.000  C
  C769     1.0000 0.29931  0.19463  0.91894  Biso   1.000  C
  C770     1.0000 0.27980  0.15550  0.90049  Biso   1.000  C
  C771     1.0000 0.34630  0.23029  0.90730  Biso   1.000  C
  C772     1.0000 0.29816  0.46402  0.74747  Biso   1.000  C
  C773     1.0000 0.24450  0.46278  0.79526  Biso   1.000  C
  C774     1.0000 0.28540  0.45032  0.71811  Biso   1.000  C
  C775     1.0000 0.83871  0.68317  0.87095  Biso   1.000  C
  C776     1.0000 0.81352  0.65468  0.86771  Biso   1.000  C
  C777     1.0000 0.83064  0.70610  0.90023  Biso   1.000  C
  C778     1.0000 0.79931  0.69463  0.91894  Biso   1.000  C
  C779     1.0000 0.77980  0.65550  0.90049  Biso   1.000  C
  C780     1.0000 0.84630  0.73029  0.90730  Biso   1.000  C
  C781     1.0000 0.79816  0.96402  0.74747  Biso   1.000  C
  C782     1.0000 0.74450  0.96278  0.79526  Biso   1.000  C
  C783     1.0000 0.78540  0.95032  0.71811  Biso   1.000  C
  C784     1.0000 0.83871  0.18317  0.37095  Biso   1.000  C
  C785     1.0000 0.81352  0.15468  0.36771  Biso   1.000  C
  C786     1.0000 0.83064  0.20610  0.40023  Biso   1.000  C
  C787     1.0000 0.79931  0.19463  0.41894  Biso   1.000  C
  C788     1.0000 0.77980  0.15550  0.40049  Biso   1.000  C
  C789     1.0000 0.84630  0.23029  0.40730  Biso   1.000  C
  C790     1.0000 0.79816  0.46402  0.24747  Biso   1.000  C
  C791     1.0000 0.74450  0.46278  0.29526  Biso   1.000  C
  C792     1.0000 0.78540  0.45032  0.21811  Biso   1.000  C
  C793     1.0000 0.66129  0.31683  0.37095  Biso   1.000  C
  C794     1.0000 0.68648  0.34532  0.36771  Biso   1.000  C
  C795     1.0000 0.66936  0.29390  0.40023  Biso   1.000  C
  C796     1.0000 0.70069  0.30537  0.41894  Biso   1.000  C
  C797     1.0000 0.72020  0.34450  0.40049  Biso   1.000  C
  C798     1.0000 0.65370  0.26971  0.40730  Biso   1.000  C
  C799     1.0000 0.70184  0.03598  0.24747  Biso   1.000  C
  C800     1.0000 0.75550  0.03722  0.29526  Biso   1.000  C
  C801     1.0000 0.71460  0.04968  0.21811  Biso   1.000  C
  C802     1.0000 0.66129  0.81683  0.87095  Biso   1.000  C
  C803     1.0000 0.68648  0.84532  0.86771  Biso   1.000  C
  C804     1.0000 0.66936  0.79390  0.90023  Biso   1.000  C
  C805     1.0000 0.70069  0.80537  0.91894  Biso   1.000  C
  C806     1.0000 0.72020  0.84450  0.90049  Biso   1.000  C
  C807     1.0000 0.65370  0.76971  0.90730  Biso   1.000  C
  C808     1.0000 0.70184  0.53598  0.74747  Biso   1.000  C
  C809     1.0000 0.75550  0.53722  0.79526  Biso   1.000  C
  C810     1.0000 0.71460  0.54968  0.71811  Biso   1.000  C
  C811     1.0000 0.16129  0.31683  0.87095  Biso   1.000  C
  C812     1.0000 0.18648  0.34532  0.86771  Biso   1.000  C
  C813     1.0000 0.16936  0.29390  0.90023  Biso   1.000  C
  C814     1.0000 0.20069  0.30537  0.91894  Biso   1.000  C
  C815     1.0000 0.22020  0.34450  0.90049  Biso   1.000  C
  C816     1.0000 0.15370  0.26971  0.90730  Biso   1.000  C
  C817     1.0000 0.20184  0.03598  0.74747  Biso   1.000  C
  C818     1.0000 0.25550  0.03722  0.79526  Biso   1.000  C
  C819     1.0000 0.21460  0.04968  0.71811  Biso   1.000  C
  C820     1.0000 0.16129  0.81683  0.37095  Biso   1.000  C
  C821     1.0000 0.18648  0.84532  0.36771  Biso   1.000  C
  C822     1.0000 0.16936  0.79390  0.40023  Biso   1.000  C
  C823     1.0000 0.20069  0.80537  0.41894  Biso   1.000  C
  C824     1.0000 0.22020  0.84450  0.40049  Biso   1.000  C
  C825     1.0000 0.15370  0.76971  0.40730  Biso   1.000  C
  C826     1.0000 0.20184  0.53598  0.24747  Biso   1.000  C
  C827     1.0000 0.25550  0.53722  0.29526  Biso   1.000  C
  C828     1.0000 0.21460  0.54968  0.21811  Biso   1.000  C
  C829     1.0000 0.66129  0.68317  0.62905  Biso   1.000  C
  C830     1.0000 0.68648  0.65468  0.63229  Biso   1.000  C
  C831     1.0000 0.66936  0.70610  0.59977  Biso   1.000  C
  C832     1.0000 0.70069  0.69463  0.58106  Biso   1.000  C
  C833     1.0000 0.72020  0.65550  0.59951  Biso   1.000  C
  C834     1.0000 0.65370  0.73029  0.59270  Biso   1.000  C
  C835     1.0000 0.70184  0.96402  0.75253  Biso   1.000  C
  C836     1.0000 0.75550  0.96278  0.70474  Biso   1.000  C
  C837     1.0000 0.71460  0.95032  0.78189  Biso   1.000  C
  C838     1.0000 0.66129  0.18317  0.12905  Biso   1.000  C
  C839     1.0000 0.68648  0.15468  0.13229  Biso   1.000  C
  C840     1.0000 0.66936  0.20610  0.09977  Biso   1.000  C
  C841     1.0000 0.70069  0.19463  0.08106  Biso   1.000  C
  C842     1.0000 0.72020  0.15550  0.09951  Biso   1.000  C
  C843     1.0000 0.65370  0.23029  0.09270  Biso   1.000  C
  C844     1.0000 0.70184  0.46402  0.25253  Biso   1.000  C
  C845     1.0000 0.75550  0.46278  0.20474  Biso   1.000  C
  C846     1.0000 0.71460  0.45032  0.28189  Biso   1.000  C
  C847     1.0000 0.16129  0.68317  0.12905  Biso   1.000  C
  C848     1.0000 0.18648  0.65468  0.13229  Biso   1.000  C
  C849     1.0000 0.16936  0.70610  0.09977  Biso   1.000  C
  C850     1.0000 0.20069  0.69463  0.08106  Biso   1.000  C
  C851     1.0000 0.22020  0.65550  0.09951  Biso   1.000  C
  C852     1.0000 0.15370  0.73029  0.09270  Biso   1.000  C
  C853     1.0000 0.20184  0.96402  0.25253  Biso   1.000  C
  C854     1.0000 0.25550  0.96278  0.20474  Biso   1.000  C
  C855     1.0000 0.21460  0.95032  0.28189  Biso   1.000  C
  C856     1.0000 0.16129  0.18317  0.62905  Biso   1.000  C
  C857     1.0000 0.18648  0.15468  0.63229  Biso   1.000  C
  C858     1.0000 0.16936  0.20610  0.59977  Biso   1.000  C
  C859     1.0000 0.20069  0.19463  0.58106  Biso   1.000  C
  C860     1.0000 0.22020  0.15550  0.59951  Biso   1.000  C
  C861     1.0000 0.15370  0.23029  0.59270  Biso   1.000  C
  C862     1.0000 0.20184  0.46402  0.75253  Biso   1.000  C
  C863     1.0000 0.25550  0.46278  0.70474  Biso   1.000  C
  C864     1.0000 0.21460  0.45032  0.78189  Biso   1.000  C
  C865     1.0000 0.27537  0.00000  0.27537  Biso   1.000  C
  C866     1.0000 0.27537  0.50000  0.77537  Biso   1.000  C
  C867     1.0000 0.77537  0.00000  0.77537  Biso   1.000  C
  C868     1.0000 0.77537  0.50000  0.27537  Biso   1.000  C
  C869     1.0000 0.72463  0.00000  0.27537  Biso   1.000  C
  C870     1.0000 0.72463  0.50000  0.77537  Biso   1.000  C
  C871     1.0000 0.22463  0.00000  0.77537  Biso   1.000  C
  C872     1.0000 0.22463  0.50000  0.27537  Biso   1.000  C
  C873     1.0000 0.72463  0.00000  0.72463  Biso   1.000  C
  C874     1.0000 0.72463  0.50000  0.22463  Biso   1.000  C
  C875     1.0000 0.22463  0.00000  0.22463  Biso   1.000  C
  C876     1.0000 0.22463  0.50000  0.72463  Biso   1.000  C
  C877     1.0000 0.27537  0.00000  0.72463  Biso   1.000  C
  C878     1.0000 0.27537  0.50000  0.22463  Biso   1.000  C
  C879     1.0000 0.77537  0.00000  0.22463  Biso   1.000  C
  C880     1.0000 0.77537  0.50000  0.72463  Biso   1.000  C
  C881     1.0000 0.27537  0.27537  0.00000  Biso   1.000  C
  C882     1.0000 0.27537  0.77537  0.50000  Biso   1.000  C
  C883     1.0000 0.77537  0.27537  0.50000  Biso   1.000  C
  C884     1.0000 0.77537  0.77537  0.00000  Biso   1.000  C
  C885     1.0000 0.27537  0.72463  0.00000  Biso   1.000  C
  C886     1.0000 0.27537  0.22463  0.50000  Biso   1.000  C
  C887     1.0000 0.77537  0.72463  0.50000  Biso   1.000  C
  C888     1.0000 0.77537  0.22463  0.00000  Biso   1.000  C
  C889     1.0000 0.72463  0.72463  0.00000  Biso   1.000  C
  C890     1.0000 0.72463  0.22463  0.50000  Biso   1.000  C
  C891     1.0000 0.22463  0.72463  0.50000  Biso   1.000  C
  C892     1.0000 0.22463  0.22463  0.00000  Biso   1.000  C
  C893     1.0000 0.72463  0.27537  0.00000  Biso   1.000  C
  C894     1.0000 0.72463  0.77537  0.50000  Biso   1.000  C
  C895     1.0000 0.22463  0.27537  0.50000  Biso   1.000  C
  C896     1.0000 0.22463  0.77537  0.00000  Biso   1.000  C
  C897     1.0000 0.00000  0.27537  0.27537  Biso   1.000  C
  C898     1.0000 0.00000  0.77537  0.77537  Biso   1.000  C
  C899     1.0000 0.50000  0.27537  0.77537  Biso   1.000  C
  C900     1.0000 0.50000  0.77537  0.27537  Biso   1.000  C
  C901     1.0000 0.00000  0.27537  0.72463  Biso   1.000  C
  C902     1.0000 0.00000  0.77537  0.22463  Biso   1.000  C
  C903     1.0000 0.50000  0.27537  0.22463  Biso   1.000  C
  C904     1.0000 0.50000  0.77537  0.72463  Biso   1.000  C
  C905     1.0000 0.00000  0.72463  0.72463  Biso   1.000  C
  C906     1.0000 0.00000  0.22463  0.22463  Biso   1.000  C
  C907     1.0000 0.50000  0.72463  0.22463  Biso   1.000  C
  C908     1.0000 0.50000  0.22463  0.72463  Biso   1.000  C
  C909     1.0000 0.00000  0.72463  0.27537  Biso   1.000  C
  C910     1.0000 0.00000  0.22463  0.77537  Biso   1.000  C
  C911     1.0000 0.50000  0.72463  0.77537  Biso   1.000  C
  C912     1.0000 0.50000  0.22463  0.27537  Biso   1.000  C
  O1       1.0000 0.41120  0.10965  0.35637  Biso   1.000  O
  O2       1.0000 0.38271  0.08446  0.35961  Biso   1.000  O
  O3       1.0000 0.43413  0.10158  0.32709  Biso   1.000  O
  O4       1.0000 0.42266  0.07025  0.30838  Biso   1.000  O
  O5       1.0000 0.38353  0.05074  0.32683  Biso   1.000  O
  O6       1.0000 0.45832  0.11724  0.32002  Biso   1.000  O
  O7       1.0000 0.69205  0.06910  0.47985  Biso   1.000  O
  O8       1.0000 0.69081  0.01544  0.43206  Biso   1.000  O
  O9       1.0000 0.67835  0.05634  0.50921  Biso   1.000  O
  O10      1.0000 0.91120  0.60965  0.35637  Biso   1.000  O
  O11      1.0000 0.88271  0.58446  0.35961  Biso   1.000  O
  O12      1.0000 0.93413  0.60158  0.32709  Biso   1.000  O
  O13      1.0000 0.92266  0.57025  0.30838  Biso   1.000  O
  O14      1.0000 0.88353  0.55074  0.32683  Biso   1.000  O
  O15      1.0000 0.95832  0.61724  0.32002  Biso   1.000  O
  O16      1.0000 0.19205  0.56910  0.47985  Biso   1.000  O
  O17      1.0000 0.19081  0.51544  0.43206  Biso   1.000  O
  O18      1.0000 0.17835  0.55634  0.50921  Biso   1.000  O
  O19      1.0000 0.41120  0.60965  0.85637  Biso   1.000  O
  O20      1.0000 0.38271  0.58446  0.85961  Biso   1.000  O
  O21      1.0000 0.43413  0.60158  0.82709  Biso   1.000  O
  O22      1.0000 0.42266  0.57025  0.80838  Biso   1.000  O
  O23      1.0000 0.38353  0.55074  0.82683  Biso   1.000  O
  O24      1.0000 0.45832  0.61724  0.82002  Biso   1.000  O
  O25      1.0000 0.69205  0.56910  0.97985  Biso   1.000  O
  O26      1.0000 0.69081  0.51544  0.93206  Biso   1.000  O
  O27      1.0000 0.67835  0.55634  0.00921  Biso   1.000  O
  O28      1.0000 0.91120  0.10965  0.85637  Biso   1.000  O
  O29      1.0000 0.88271  0.08446  0.85961  Biso   1.000  O
  O30      1.0000 0.93413  0.10158  0.82709  Biso   1.000  O
  O31      1.0000 0.92266  0.07025  0.80838  Biso   1.000  O
  O32      1.0000 0.88353  0.05074  0.82683  Biso   1.000  O
  O33      1.0000 0.95832  0.11724  0.82002  Biso   1.000  O
  O34      1.0000 0.19205  0.06910  0.97985  Biso   1.000  O
  O35      1.0000 0.19081  0.01544  0.93206  Biso   1.000  O
  O36      1.0000 0.17835  0.05634  0.00921  Biso   1.000  O
  O37      1.0000 0.04486  0.10965  0.09827  Biso   1.000  O
  O38      1.0000 0.07335  0.08446  0.09503  Biso   1.000  O
  O39      1.0000 0.02193  0.10158  0.12755  Biso   1.000  O
  O40      1.0000 0.03340  0.07025  0.14626  Biso   1.000  O
  O41      1.0000 0.07253  0.05074  0.12781  Biso   1.000  O
  O42      1.0000 0.99774  0.11724  0.13462  Biso   1.000  O
  O43      1.0000 0.76401  0.06910  0.97479  Biso   1.000  O
  O44      1.0000 0.76525  0.01544  0.02258  Biso   1.000  O
  O45      1.0000 0.77771  0.05634  0.94543  Biso   1.000  O
  O46      1.0000 0.54486  0.60965  0.09827  Biso   1.000  O
  O47      1.0000 0.57335  0.58446  0.09503  Biso   1.000  O
  O48      1.0000 0.52193  0.60158  0.12755  Biso   1.000  O
  O49      1.0000 0.53340  0.57025  0.14626  Biso   1.000  O
  O50      1.0000 0.57253  0.55074  0.12781  Biso   1.000  O
  O51      1.0000 0.49774  0.61724  0.13462  Biso   1.000  O
  O52      1.0000 0.26401  0.56910  0.97479  Biso   1.000  O
  O53      1.0000 0.26525  0.51544  0.02258  Biso   1.000  O
  O54      1.0000 0.27771  0.55634  0.94543  Biso   1.000  O
  O55      1.0000 0.04486  0.60965  0.59827  Biso   1.000  O
  O56      1.0000 0.07335  0.58446  0.59503  Biso   1.000  O
  O57      1.0000 0.02193  0.60158  0.62755  Biso   1.000  O
  O58      1.0000 0.03340  0.57025  0.64626  Biso   1.000  O
  O59      1.0000 0.07253  0.55074  0.62781  Biso   1.000  O
  O60      1.0000 0.99774  0.61724  0.63462  Biso   1.000  O
  O61      1.0000 0.76401  0.56910  0.47479  Biso   1.000  O
  O62      1.0000 0.76525  0.51544  0.52258  Biso   1.000  O
  O63      1.0000 0.77771  0.55634  0.44543  Biso   1.000  O
  O64      1.0000 0.54486  0.10965  0.59827  Biso   1.000  O
  O65      1.0000 0.57335  0.08446  0.59503  Biso   1.000  O
  O66      1.0000 0.52193  0.10158  0.62755  Biso   1.000  O
  O67      1.0000 0.53340  0.07025  0.64626  Biso   1.000  O
  O68      1.0000 0.57253  0.05074  0.62781  Biso   1.000  O
  O69      1.0000 0.49774  0.11724  0.63462  Biso   1.000  O
  O70      1.0000 0.26401  0.06910  0.47479  Biso   1.000  O
  O71      1.0000 0.26525  0.01544  0.52258  Biso   1.000  O
  O72      1.0000 0.27771  0.05634  0.44543  Biso   1.000  O
  O73      1.0000 0.41120  0.43223  0.09827  Biso   1.000  O
  O74      1.0000 0.38271  0.45742  0.09503  Biso   1.000  O
  O75      1.0000 0.43413  0.44030  0.12755  Biso   1.000  O
  O76      1.0000 0.42266  0.47163  0.14626  Biso   1.000  O
  O77      1.0000 0.38353  0.49114  0.12781  Biso   1.000  O
  O78      1.0000 0.45832  0.42464  0.13462  Biso   1.000  O
  O79      1.0000 0.69205  0.47278  0.97479  Biso   1.000  O
  O80      1.0000 0.69081  0.52644  0.02258  Biso   1.000  O
  O81      1.0000 0.67835  0.48554  0.94543  Biso   1.000  O
  O82      1.0000 0.91120  0.93223  0.09827  Biso   1.000  O
  O83      1.0000 0.88271  0.95742  0.09503  Biso   1.000  O
  O84      1.0000 0.93413  0.94030  0.12755  Biso   1.000  O
  O85      1.0000 0.92266  0.97163  0.14626  Biso   1.000  O
  O86      1.0000 0.88353  0.99114  0.12781  Biso   1.000  O
  O87      1.0000 0.95832  0.92464  0.13462  Biso   1.000  O
  O88      1.0000 0.19205  0.97278  0.97479  Biso   1.000  O
  O89      1.0000 0.19081  0.02644  0.02258  Biso   1.000  O
  O90      1.0000 0.17835  0.98554  0.94543  Biso   1.000  O
  O91      1.0000 0.41120  0.93223  0.59827  Biso   1.000  O
  O92      1.0000 0.38271  0.95742  0.59503  Biso   1.000  O
  O93      1.0000 0.43413  0.94030  0.62755  Biso   1.000  O
  O94      1.0000 0.42266  0.97163  0.64626  Biso   1.000  O
  O95      1.0000 0.38353  0.99114  0.62781  Biso   1.000  O
  O96      1.0000 0.45832  0.92464  0.63462  Biso   1.000  O
  O97      1.0000 0.69205  0.97278  0.47479  Biso   1.000  O
  O98      1.0000 0.69081  0.02644  0.52258  Biso   1.000  O
  O99      1.0000 0.67835  0.98554  0.44543  Biso   1.000  O
  O100     1.0000 0.91120  0.43223  0.59827  Biso   1.000  O
  O101     1.0000 0.88271  0.45742  0.59503  Biso   1.000  O
  O102     1.0000 0.93413  0.44030  0.62755  Biso   1.000  O
  O103     1.0000 0.92266  0.47163  0.64626  Biso   1.000  O
  O104     1.0000 0.88353  0.49114  0.62781  Biso   1.000  O
  O105     1.0000 0.95832  0.42464  0.63462  Biso   1.000  O
  O106     1.0000 0.19205  0.47278  0.47479  Biso   1.000  O
  O107     1.0000 0.19081  0.52644  0.52258  Biso   1.000  O
  O108     1.0000 0.17835  0.48554  0.44543  Biso   1.000  O
  O109     1.0000 0.04486  0.43223  0.35637  Biso   1.000  O
  O110     1.0000 0.07335  0.45742  0.35961  Biso   1.000  O
  O111     1.0000 0.02193  0.44030  0.32709  Biso   1.000  O
  O112     1.0000 0.03340  0.47163  0.30838  Biso   1.000  O
  O113     1.0000 0.07253  0.49114  0.32683  Biso   1.000  O
  O114     1.0000 0.99774  0.42464  0.32002  Biso   1.000  O
  O115     1.0000 0.76401  0.47278  0.47985  Biso   1.000  O
  O116     1.0000 0.76525  0.52644  0.43206  Biso   1.000  O
  O117     1.0000 0.77771  0.48554  0.50921  Biso   1.000  O
  O118     1.0000 0.54486  0.93223  0.35637  Biso   1.000  O
  O119     1.0000 0.57335  0.95742  0.35961  Biso   1.000  O
  O120     1.0000 0.52193  0.94030  0.32709  Biso   1.000  O
  O121     1.0000 0.53340  0.97163  0.30838  Biso   1.000  O
  O122     1.0000 0.57253  0.99114  0.32683  Biso   1.000  O
  O123     1.0000 0.49774  0.92464  0.32002  Biso   1.000  O
  O124     1.0000 0.26401  0.97278  0.47985  Biso   1.000  O
  O125     1.0000 0.26525  0.02644  0.43206  Biso   1.000  O
  O126     1.0000 0.27771  0.98554  0.50921  Biso   1.000  O
  O127     1.0000 0.04486  0.93223  0.85637  Biso   1.000  O
  O128     1.0000 0.07335  0.95742  0.85961  Biso   1.000  O
  O129     1.0000 0.02193  0.94030  0.82709  Biso   1.000  O
  O130     1.0000 0.03340  0.97163  0.80838  Biso   1.000  O
  O131     1.0000 0.07253  0.99114  0.82683  Biso   1.000  O
  O132     1.0000 0.99774  0.92464  0.82002  Biso   1.000  O
  O133     1.0000 0.76401  0.97278  0.97985  Biso   1.000  O
  O134     1.0000 0.76525  0.02644  0.93206  Biso   1.000  O
  O135     1.0000 0.77771  0.98554  0.00921  Biso   1.000  O
  O136     1.0000 0.54486  0.43223  0.85637  Biso   1.000  O
  O137     1.0000 0.57335  0.45742  0.85961  Biso   1.000  O
  O138     1.0000 0.52193  0.44030  0.82709  Biso   1.000  O
  O139     1.0000 0.53340  0.47163  0.80838  Biso   1.000  O
  O140     1.0000 0.57253  0.49114  0.82683  Biso   1.000  O
  O141     1.0000 0.49774  0.42464  0.82002  Biso   1.000  O
  O142     1.0000 0.26401  0.47278  0.97985  Biso   1.000  O
  O143     1.0000 0.26525  0.52644  0.93206  Biso   1.000  O
  O144     1.0000 0.27771  0.48554  0.00921  Biso   1.000  O
  O145     1.0000 0.35708  0.08777  0.38861  Biso   1.000  O
  O146     1.0000 0.36032  0.11626  0.41380  Biso   1.000  O
  O147     1.0000 0.32780  0.06484  0.39668  Biso   1.000  O
  O148     1.0000 0.30909  0.07631  0.42801  Biso   1.000  O
  O149     1.0000 0.32754  0.11544  0.44752  Biso   1.000  O
  O150     1.0000 0.32073  0.04065  0.38102  Biso   1.000  O
  O151     1.0000 0.48056  0.80692  0.42916  Biso   1.000  O
  O152     1.0000 0.43277  0.80816  0.48282  Biso   1.000  O
  O153     1.0000 0.50992  0.82062  0.44192  Biso   1.000  O
  O154     1.0000 0.85708  0.58777  0.38861  Biso   1.000  O
  O155     1.0000 0.86032  0.61626  0.41380  Biso   1.000  O
  O156     1.0000 0.82780  0.56484  0.39668  Biso   1.000  O
  O157     1.0000 0.80909  0.57631  0.42801  Biso   1.000  O
  O158     1.0000 0.82754  0.61544  0.44752  Biso   1.000  O
  O159     1.0000 0.82073  0.54065  0.38102  Biso   1.000  O
  O160     1.0000 0.98056  0.30692  0.42916  Biso   1.000  O
  O161     1.0000 0.93277  0.30816  0.48282  Biso   1.000  O
  O162     1.0000 0.00992  0.32062  0.44192  Biso   1.000  O
  O163     1.0000 0.35708  0.58777  0.88861  Biso   1.000  O
  O164     1.0000 0.36032  0.61626  0.91380  Biso   1.000  O
  O165     1.0000 0.32780  0.56484  0.89668  Biso   1.000  O
  O166     1.0000 0.30909  0.57631  0.92801  Biso   1.000  O
  O167     1.0000 0.32754  0.61544  0.94752  Biso   1.000  O
  O168     1.0000 0.32073  0.54065  0.88102  Biso   1.000  O
  O169     1.0000 0.48056  0.30692  0.92916  Biso   1.000  O
  O170     1.0000 0.43277  0.30816  0.98282  Biso   1.000  O
  O171     1.0000 0.50992  0.32062  0.94192  Biso   1.000  O
  O172     1.0000 0.85708  0.08777  0.88861  Biso   1.000  O
  O173     1.0000 0.86032  0.11626  0.91380  Biso   1.000  O
  O174     1.0000 0.82780  0.06484  0.89668  Biso   1.000  O
  O175     1.0000 0.80909  0.07631  0.92801  Biso   1.000  O
  O176     1.0000 0.82754  0.11544  0.94752  Biso   1.000  O
  O177     1.0000 0.82073  0.04065  0.88102  Biso   1.000  O
  O178     1.0000 0.98056  0.80692  0.92916  Biso   1.000  O
  O179     1.0000 0.93277  0.80816  0.98282  Biso   1.000  O
  O180     1.0000 0.00992  0.82062  0.94192  Biso   1.000  O
  O181     1.0000 0.09898  0.45411  0.38861  Biso   1.000  O
  O182     1.0000 0.09574  0.42562  0.41380  Biso   1.000  O
  O183     1.0000 0.12826  0.47704  0.39668  Biso   1.000  O
  O184     1.0000 0.14697  0.46557  0.42801  Biso   1.000  O
  O185     1.0000 0.12852  0.42644  0.44752  Biso   1.000  O
  O186     1.0000 0.13533  0.50123  0.38102  Biso   1.000  O
  O187     1.0000 0.97550  0.73496  0.42916  Biso   1.000  O
  O188     1.0000 0.02329  0.73372  0.48282  Biso   1.000  O
  O189     1.0000 0.94614  0.72126  0.44192  Biso   1.000  O
  O190     1.0000 0.59898  0.95411  0.38861  Biso   1.000  O
  O191     1.0000 0.59574  0.92562  0.41380  Biso   1.000  O
  O192     1.0000 0.62826  0.97704  0.39668  Biso   1.000  O
  O193     1.0000 0.64697  0.96557  0.42801  Biso   1.000  O
  O194     1.0000 0.62852  0.92644  0.44752  Biso   1.000  O
  O195     1.0000 0.63533  0.00123  0.38102  Biso   1.000  O
  O196     1.0000 0.47550  0.23496  0.42916  Biso   1.000  O
  O197     1.0000 0.52329  0.23372  0.48282  Biso   1.000  O
  O198     1.0000 0.44614  0.22126  0.44192  Biso   1.000  O
  O199     1.0000 0.09898  0.95411  0.88861  Biso   1.000  O
  O200     1.0000 0.09574  0.92562  0.91380  Biso   1.000  O
  O201     1.0000 0.12826  0.97704  0.89668  Biso   1.000  O
  O202     1.0000 0.14697  0.96557  0.92801  Biso   1.000  O
  O203     1.0000 0.12852  0.92644  0.94752  Biso   1.000  O
  O204     1.0000 0.13533  0.00123  0.88102  Biso   1.000  O
  O205     1.0000 0.97550  0.23496  0.92916  Biso   1.000  O
  O206     1.0000 0.02329  0.23372  0.98282  Biso   1.000  O
  O207     1.0000 0.94614  0.22126  0.94192  Biso   1.000  O
  O208     1.0000 0.59898  0.45411  0.88861  Biso   1.000  O
  O209     1.0000 0.59574  0.42562  0.91380  Biso   1.000  O
  O210     1.0000 0.62826  0.47704  0.89668  Biso   1.000  O
  O211     1.0000 0.64697  0.46557  0.92801  Biso   1.000  O
  O212     1.0000 0.62852  0.42644  0.94752  Biso   1.000  O
  O213     1.0000 0.63533  0.50123  0.88102  Biso   1.000  O
  O214     1.0000 0.47550  0.73496  0.92916  Biso   1.000  O
  O215     1.0000 0.52329  0.73372  0.98282  Biso   1.000  O
  O216     1.0000 0.44614  0.72126  0.94192  Biso   1.000  O
  O217     1.0000 0.09898  0.08777  0.06603  Biso   1.000  O
  O218     1.0000 0.09574  0.11626  0.04084  Biso   1.000  O
  O219     1.0000 0.12826  0.06484  0.05796  Biso   1.000  O
  O220     1.0000 0.14697  0.07631  0.02663  Biso   1.000  O
  O221     1.0000 0.12852  0.11544  0.00712  Biso   1.000  O
  O222     1.0000 0.13533  0.04065  0.07362  Biso   1.000  O
  O223     1.0000 0.97550  0.80692  0.02548  Biso   1.000  O
  O224     1.0000 0.02329  0.80816  0.97182  Biso   1.000  O
  O225     1.0000 0.94614  0.82062  0.01272  Biso   1.000  O
  O226     1.0000 0.59898  0.58777  0.06603  Biso   1.000  O
  O227     1.0000 0.59574  0.61626  0.04084  Biso   1.000  O
  O228     1.0000 0.62826  0.56484  0.05796  Biso   1.000  O
  O229     1.0000 0.64697  0.57631  0.02663  Biso   1.000  O
  O230     1.0000 0.62852  0.61544  0.00712  Biso   1.000  O
  O231     1.0000 0.63533  0.54065  0.07362  Biso   1.000  O
  O232     1.0000 0.47550  0.30692  0.02548  Biso   1.000  O
  O233     1.0000 0.52329  0.30816  0.97182  Biso   1.000  O
  O234     1.0000 0.44614  0.32062  0.01272  Biso   1.000  O
  O235     1.0000 0.09898  0.58777  0.56603  Biso   1.000  O
  O236     1.0000 0.09574  0.61626  0.54084  Biso   1.000  O
  O237     1.0000 0.12826  0.56484  0.55796  Biso   1.000  O
  O238     1.0000 0.14697  0.57631  0.52663  Biso   1.000  O
  O239     1.0000 0.12852  0.61544  0.50712  Biso   1.000  O
  O240     1.0000 0.13533  0.54065  0.57362  Biso   1.000  O
  O241     1.0000 0.97550  0.30692  0.52548  Biso   1.000  O
  O242     1.0000 0.02329  0.30816  0.47182  Biso   1.000  O
  O243     1.0000 0.94614  0.32062  0.51272  Biso   1.000  O
  O244     1.0000 0.59898  0.08777  0.56603  Biso   1.000  O
  O245     1.0000 0.59574  0.11626  0.54084  Biso   1.000  O
  O246     1.0000 0.62826  0.06484  0.55796  Biso   1.000  O
  O247     1.0000 0.64697  0.07631  0.52663  Biso   1.000  O
  O248     1.0000 0.62852  0.11544  0.50712  Biso   1.000  O
  O249     1.0000 0.63533  0.04065  0.57362  Biso   1.000  O
  O250     1.0000 0.47550  0.80692  0.52548  Biso   1.000  O
  O251     1.0000 0.52329  0.80816  0.47182  Biso   1.000  O
  O252     1.0000 0.44614  0.82062  0.51272  Biso   1.000  O
  O253     1.0000 0.35708  0.45411  0.06603  Biso   1.000  O
  O254     1.0000 0.36032  0.42562  0.04084  Biso   1.000  O
  O255     1.0000 0.32780  0.47704  0.05796  Biso   1.000  O
  O256     1.0000 0.30909  0.46557  0.02663  Biso   1.000  O
  O257     1.0000 0.32754  0.42644  0.00712  Biso   1.000  O
  O258     1.0000 0.32073  0.50123  0.07362  Biso   1.000  O
  O259     1.0000 0.48056  0.73496  0.02548  Biso   1.000  O
  O260     1.0000 0.43277  0.73372  0.97182  Biso   1.000  O
  O261     1.0000 0.50992  0.72126  0.01272  Biso   1.000  O
  O262     1.0000 0.85708  0.95411  0.06603  Biso   1.000  O
  O263     1.0000 0.86032  0.92562  0.04084  Biso   1.000  O
  O264     1.0000 0.82780  0.97704  0.05796  Biso   1.000  O
  O265     1.0000 0.80909  0.96557  0.02663  Biso   1.000  O
  O266     1.0000 0.82754  0.92644  0.00712  Biso   1.000  O
  O267     1.0000 0.82073  0.00123  0.07362  Biso   1.000  O
  O268     1.0000 0.98056  0.23496  0.02548  Biso   1.000  O
  O269     1.0000 0.93277  0.23372  0.97182  Biso   1.000  O
  O270     1.0000 0.00992  0.22126  0.01272  Biso   1.000  O
  O271     1.0000 0.35708  0.95411  0.56603  Biso   1.000  O
  O272     1.0000 0.36032  0.92562  0.54084  Biso   1.000  O
  O273     1.0000 0.32780  0.97704  0.55796  Biso   1.000  O
  O274     1.0000 0.30909  0.96557  0.52663  Biso   1.000  O
  O275     1.0000 0.32754  0.92644  0.50712  Biso   1.000  O
  O276     1.0000 0.32073  0.00123  0.57362  Biso   1.000  O
  O277     1.0000 0.48056  0.23496  0.52548  Biso   1.000  O
  O278     1.0000 0.43277  0.23372  0.47182  Biso   1.000  O
  O279     1.0000 0.50992  0.22126  0.51272  Biso   1.000  O
  O280     1.0000 0.85708  0.45411  0.56603  Biso   1.000  O
  O281     1.0000 0.86032  0.42562  0.54084  Biso   1.000  O
  O282     1.0000 0.82780  0.47704  0.55796  Biso   1.000  O
  O283     1.0000 0.80909  0.46557  0.52663  Biso   1.000  O
  O284     1.0000 0.82754  0.42644  0.50712  Biso   1.000  O
  O285     1.0000 0.82073  0.50123  0.57362  Biso   1.000  O
  O286     1.0000 0.98056  0.73496  0.52548  Biso   1.000  O
  O287     1.0000 0.93277  0.73372  0.47182  Biso   1.000  O
  O288     1.0000 0.00992  0.72126  0.51272  Biso   1.000  O
  O289     1.0000 0.38932  0.14189  0.41049  Biso   1.000  O
  O290     1.0000 0.41451  0.13865  0.38200  Biso   1.000  O
  O291     1.0000 0.39739  0.17117  0.43342  Biso   1.000  O
  O292     1.0000 0.42872  0.18988  0.42195  Biso   1.000  O
  O293     1.0000 0.44823  0.17143  0.38282  Biso   1.000  O
  O294     1.0000 0.38173  0.17824  0.45761  Biso   1.000  O
  O295     1.0000 0.42987  0.01841  0.69134  Biso   1.000  O
  O296     1.0000 0.48353  0.06620  0.69010  Biso   1.000  O
  O297     1.0000 0.44263  0.98905  0.67764  Biso   1.000  O
  O298     1.0000 0.88932  0.64189  0.41049  Biso   1.000  O
  O299     1.0000 0.91451  0.63865  0.38200  Biso   1.000  O
  O300     1.0000 0.89739  0.67117  0.43342  Biso   1.000  O
  O301     1.0000 0.92872  0.68988  0.42195  Biso   1.000  O
  O302     1.0000 0.94823  0.67143  0.38282  Biso   1.000  O
  O303     1.0000 0.88173  0.67824  0.45761  Biso   1.000  O
  O304     1.0000 0.92987  0.51841  0.69134  Biso   1.000  O
  O305     1.0000 0.98353  0.56620  0.69010  Biso   1.000  O
  O306     1.0000 0.94263  0.48905  0.67764  Biso   1.000  O
  O307     1.0000 0.38932  0.64189  0.91049  Biso   1.000  O
  O308     1.0000 0.41451  0.63865  0.88200  Biso   1.000  O
  O309     1.0000 0.39739  0.67117  0.93342  Biso   1.000  O
  O310     1.0000 0.42872  0.68988  0.92195  Biso   1.000  O
  O311     1.0000 0.44823  0.67143  0.88282  Biso   1.000  O
  O312     1.0000 0.38173  0.67824  0.95761  Biso   1.000  O
  O313     1.0000 0.42987  0.51841  0.19134  Biso   1.000  O
  O314     1.0000 0.48353  0.56620  0.19010  Biso   1.000  O
  O315     1.0000 0.44263  0.48905  0.17764  Biso   1.000  O
  O316     1.0000 0.88932  0.14189  0.91049  Biso   1.000  O
  O317     1.0000 0.91451  0.13865  0.88200  Biso   1.000  O
  O318     1.0000 0.89739  0.17117  0.93342  Biso   1.000  O
  O319     1.0000 0.92872  0.18988  0.92195  Biso   1.000  O
  O320     1.0000 0.94823  0.17143  0.88282  Biso   1.000  O
  O321     1.0000 0.88173  0.17824  0.95761  Biso   1.000  O
  O322     1.0000 0.92987  0.01841  0.19134  Biso   1.000  O
  O323     1.0000 0.98353  0.06620  0.19010  Biso   1.000  O
  O324     1.0000 0.94263  0.98905  0.17764  Biso   1.000  O
  O325     1.0000 0.38932  0.39999  0.04415  Biso   1.000  O
  O326     1.0000 0.41451  0.40323  0.07264  Biso   1.000  O
  O327     1.0000 0.39739  0.37071  0.02122  Biso   1.000  O
  O328     1.0000 0.42872  0.35200  0.03269  Biso   1.000  O
  O329     1.0000 0.44823  0.37045  0.07182  Biso   1.000  O
  O330     1.0000 0.38173  0.36364  0.99703  Biso   1.000  O
  O331     1.0000 0.42987  0.52347  0.76330  Biso   1.000  O
  O332     1.0000 0.48353  0.47568  0.76454  Biso   1.000  O
  O333     1.0000 0.44263  0.55283  0.77700  Biso   1.000  O
  O334     1.0000 0.88932  0.89999  0.04415  Biso   1.000  O
  O335     1.0000 0.91451  0.90323  0.07264  Biso   1.000  O
  O336     1.0000 0.89739  0.87071  0.02122  Biso   1.000  O
  O337     1.0000 0.92872  0.85200  0.03269  Biso   1.000  O
  O338     1.0000 0.94823  0.87045  0.07182  Biso   1.000  O
  O339     1.0000 0.88173  0.86364  0.99703  Biso   1.000  O
  O340     1.0000 0.92987  0.02347  0.76330  Biso   1.000  O
  O341     1.0000 0.98353  0.97568  0.76454  Biso   1.000  O
  O342     1.0000 0.94263  0.05283  0.77700  Biso   1.000  O
  O343     1.0000 0.38932  0.89999  0.54415  Biso   1.000  O
  O344     1.0000 0.41451  0.90323  0.57264  Biso   1.000  O
  O345     1.0000 0.39739  0.87071  0.52122  Biso   1.000  O
  O346     1.0000 0.42872  0.85200  0.53269  Biso   1.000  O
  O347     1.0000 0.44823  0.87045  0.57182  Biso   1.000  O
  O348     1.0000 0.38173  0.86364  0.49703  Biso   1.000  O
  O349     1.0000 0.42987  0.02347  0.26330  Biso   1.000  O
  O350     1.0000 0.48353  0.97568  0.26454  Biso   1.000  O
  O351     1.0000 0.44263  0.05283  0.27700  Biso   1.000  O
  O352     1.0000 0.88932  0.39999  0.54415  Biso   1.000  O
  O353     1.0000 0.91451  0.40323  0.57264  Biso   1.000  O
  O354     1.0000 0.89739  0.37071  0.52122  Biso   1.000  O
  O355     1.0000 0.92872  0.35200  0.53269  Biso   1.000  O
  O356     1.0000 0.94823  0.37045  0.57182  Biso   1.000  O
  O357     1.0000 0.88173  0.36364  0.49703  Biso   1.000  O
  O358     1.0000 0.92987  0.52347  0.26330  Biso   1.000  O
  O359     1.0000 0.98353  0.47568  0.26454  Biso   1.000  O
  O360     1.0000 0.94263  0.55283  0.27700  Biso   1.000  O
  O361     1.0000 0.06674  0.39999  0.41049  Biso   1.000  O
  O362     1.0000 0.04155  0.40323  0.38200  Biso   1.000  O
  O363     1.0000 0.05867  0.37071  0.43342  Biso   1.000  O
  O364     1.0000 0.02734  0.35200  0.42195  Biso   1.000  O
  O365     1.0000 0.00783  0.37045  0.38282  Biso   1.000  O
  O366     1.0000 0.07433  0.36364  0.45761  Biso   1.000  O
  O367     1.0000 0.02619  0.52347  0.69134  Biso   1.000  O
  O368     1.0000 0.97253  0.47568  0.69010  Biso   1.000  O
  O369     1.0000 0.01343  0.55283  0.67764  Biso   1.000  O
  O370     1.0000 0.56674  0.89999  0.41049  Biso   1.000  O
  O371     1.0000 0.54155  0.90323  0.38200  Biso   1.000  O
  O372     1.0000 0.55867  0.87071  0.43342  Biso   1.000  O
  O373     1.0000 0.52734  0.85200  0.42195  Biso   1.000  O
  O374     1.0000 0.50783  0.87045  0.38282  Biso   1.000  O
  O375     1.0000 0.57433  0.86364  0.45761  Biso   1.000  O
  O376     1.0000 0.52619  0.02347  0.69134  Biso   1.000  O
  O377     1.0000 0.47253  0.97568  0.69010  Biso   1.000  O
  O378     1.0000 0.51343  0.05283  0.67764  Biso   1.000  O
  O379     1.0000 0.06674  0.89999  0.91049  Biso   1.000  O
  O380     1.0000 0.04155  0.90323  0.88200  Biso   1.000  O
  O381     1.0000 0.05867  0.87071  0.93342  Biso   1.000  O
  O382     1.0000 0.02734  0.85200  0.92195  Biso   1.000  O
  O383     1.0000 0.00783  0.87045  0.88282  Biso   1.000  O
  O384     1.0000 0.07433  0.86364  0.95761  Biso   1.000  O
  O385     1.0000 0.02619  0.02347  0.19134  Biso   1.000  O
  O386     1.0000 0.97253  0.97568  0.19010  Biso   1.000  O
  O387     1.0000 0.01343  0.05283  0.17764  Biso   1.000  O
  O388     1.0000 0.56674  0.39999  0.91049  Biso   1.000  O
  O389     1.0000 0.54155  0.40323  0.88200  Biso   1.000  O
  O390     1.0000 0.55867  0.37071  0.93342  Biso   1.000  O
  O391     1.0000 0.52734  0.35200  0.92195  Biso   1.000  O
  O392     1.0000 0.50783  0.37045  0.88282  Biso   1.000  O
  O393     1.0000 0.57433  0.36364  0.95761  Biso   1.000  O
  O394     1.0000 0.52619  0.52347  0.19134  Biso   1.000  O
  O395     1.0000 0.47253  0.47568  0.19010  Biso   1.000  O
  O396     1.0000 0.51343  0.55283  0.17764  Biso   1.000  O
  O397     1.0000 0.06674  0.14189  0.04415  Biso   1.000  O
  O398     1.0000 0.04155  0.13865  0.07264  Biso   1.000  O
  O399     1.0000 0.05867  0.17117  0.02122  Biso   1.000  O
  O400     1.0000 0.02734  0.18988  0.03269  Biso   1.000  O
  O401     1.0000 0.00783  0.17143  0.07182  Biso   1.000  O
  O402     1.0000 0.07433  0.17824  0.99703  Biso   1.000  O
  O403     1.0000 0.02619  0.01841  0.76330  Biso   1.000  O
  O404     1.0000 0.97253  0.06620  0.76454  Biso   1.000  O
  O405     1.0000 0.01343  0.98905  0.77700  Biso   1.000  O
  O406     1.0000 0.56674  0.64189  0.04415  Biso   1.000  O
  O407     1.0000 0.54155  0.63865  0.07264  Biso   1.000  O
  O408     1.0000 0.55867  0.67117  0.02122  Biso   1.000  O
  O409     1.0000 0.52734  0.68988  0.03269  Biso   1.000  O
  O410     1.0000 0.50783  0.67143  0.07182  Biso   1.000  O
  O411     1.0000 0.57433  0.67824  0.99703  Biso   1.000  O
  O412     1.0000 0.52619  0.51841  0.76330  Biso   1.000  O
  O413     1.0000 0.47253  0.56620  0.76454  Biso   1.000  O
  O414     1.0000 0.51343  0.48905  0.77700  Biso   1.000  O
  O415     1.0000 0.06674  0.64189  0.54415  Biso   1.000  O
  O416     1.0000 0.04155  0.63865  0.57264  Biso   1.000  O
  O417     1.0000 0.05867  0.67117  0.52122  Biso   1.000  O
  O418     1.0000 0.02734  0.68988  0.53269  Biso   1.000  O
  O419     1.0000 0.00783  0.67143  0.57182  Biso   1.000  O
  O420     1.0000 0.07433  0.67824  0.49703  Biso   1.000  O
  O421     1.0000 0.02619  0.51841  0.26330  Biso   1.000  O
  O422     1.0000 0.97253  0.56620  0.26454  Biso   1.000  O
  O423     1.0000 0.01343  0.48905  0.27700  Biso   1.000  O
  O424     1.0000 0.56674  0.14189  0.54415  Biso   1.000  O
  O425     1.0000 0.54155  0.13865  0.57264  Biso   1.000  O
  O426     1.0000 0.55867  0.17117  0.52122  Biso   1.000  O
  O427     1.0000 0.52734  0.18988  0.53269  Biso   1.000  O
  O428     1.0000 0.50783  0.17143  0.57182  Biso   1.000  O
  O429     1.0000 0.57433  0.17824  0.49703  Biso   1.000  O
  O430     1.0000 0.52619  0.01841  0.26330  Biso   1.000  O
  O431     1.0000 0.47253  0.06620  0.26454  Biso   1.000  O
  O432     1.0000 0.51343  0.98905  0.27700  Biso   1.000  O
  O433     1.0000 0.35708  0.43223  0.41049  Biso   1.000  O
  O434     1.0000 0.36032  0.45742  0.38200  Biso   1.000  O
  O435     1.0000 0.32780  0.44030  0.43342  Biso   1.000  O
  O436     1.0000 0.30909  0.47163  0.42195  Biso   1.000  O
  O437     1.0000 0.32754  0.49114  0.38282  Biso   1.000  O
  O438     1.0000 0.32073  0.42464  0.45761  Biso   1.000  O
  O439     1.0000 0.48056  0.47278  0.69134  Biso   1.000  O
  O440     1.0000 0.43277  0.52644  0.69010  Biso   1.000  O
  O441     1.0000 0.50992  0.48554  0.67764  Biso   1.000  O
  O442     1.0000 0.85708  0.93223  0.41049  Biso   1.000  O
  O443     1.0000 0.86032  0.95742  0.38200  Biso   1.000  O
  O444     1.0000 0.82780  0.94030  0.43342  Biso   1.000  O
  O445     1.0000 0.80909  0.97163  0.42195  Biso   1.000  O
  O446     1.0000 0.82754  0.99114  0.38282  Biso   1.000  O
  O447     1.0000 0.82073  0.92464  0.45761  Biso   1.000  O
  O448     1.0000 0.98056  0.97278  0.69134  Biso   1.000  O
  O449     1.0000 0.93277  0.02644  0.69010  Biso   1.000  O
  O450     1.0000 0.00992  0.98554  0.67764  Biso   1.000  O
  O451     1.0000 0.35708  0.93223  0.91049  Biso   1.000  O
  O452     1.0000 0.36032  0.95742  0.88200  Biso   1.000  O
  O453     1.0000 0.32780  0.94030  0.93342  Biso   1.000  O
  O454     1.0000 0.30909  0.97163  0.92195  Biso   1.000  O
  O455     1.0000 0.32754  0.99114  0.88282  Biso   1.000  O
  O456     1.0000 0.32073  0.92464  0.95761  Biso   1.000  O
  O457     1.0000 0.48056  0.97278  0.19134  Biso   1.000  O
  O458     1.0000 0.43277  0.02644  0.19010  Biso   1.000  O
  O459     1.0000 0.50992  0.98554  0.17764  Biso   1.000  O
  O460     1.0000 0.85708  0.43223  0.91049  Biso   1.000  O
  O461     1.0000 0.86032  0.45742  0.88200  Biso   1.000  O
  O462     1.0000 0.82780  0.44030  0.93342  Biso   1.000  O
  O463     1.0000 0.80909  0.47163  0.92195  Biso   1.000  O
  O464     1.0000 0.82754  0.49114  0.88282  Biso   1.000  O
  O465     1.0000 0.82073  0.42464  0.95761  Biso   1.000  O
  O466     1.0000 0.98056  0.47278  0.19134  Biso   1.000  O
  O467     1.0000 0.93277  0.52644  0.19010  Biso   1.000  O
  O468     1.0000 0.00992  0.48554  0.17764  Biso   1.000  O
  O469     1.0000 0.09898  0.43223  0.04415  Biso   1.000  O
  O470     1.0000 0.09574  0.45742  0.07264  Biso   1.000  O
  O471     1.0000 0.12826  0.44030  0.02122  Biso   1.000  O
  O472     1.0000 0.14697  0.47163  0.03269  Biso   1.000  O
  O473     1.0000 0.12852  0.49114  0.07182  Biso   1.000  O
  O474     1.0000 0.13533  0.42464  0.99703  Biso   1.000  O
  O475     1.0000 0.97550  0.47278  0.76330  Biso   1.000  O
  O476     1.0000 0.02329  0.52644  0.76454  Biso   1.000  O
  O477     1.0000 0.94614  0.48554  0.77700  Biso   1.000  O
  O478     1.0000 0.59898  0.93223  0.04415  Biso   1.000  O
  O479     1.0000 0.59574  0.95742  0.07264  Biso   1.000  O
  O480     1.0000 0.62826  0.94030  0.02122  Biso   1.000  O
  O481     1.0000 0.64697  0.97163  0.03269  Biso   1.000  O
  O482     1.0000 0.62852  0.99114  0.07182  Biso   1.000  O
  O483     1.0000 0.63533  0.92464  0.99703  Biso   1.000  O
  O484     1.0000 0.47550  0.97278  0.76330  Biso   1.000  O
  O485     1.0000 0.52329  0.02644  0.76454  Biso   1.000  O
  O486     1.0000 0.44614  0.98554  0.77700  Biso   1.000  O
  O487     1.0000 0.09898  0.93223  0.54415  Biso   1.000  O
  O488     1.0000 0.09574  0.95742  0.57264  Biso   1.000  O
  O489     1.0000 0.12826  0.94030  0.52122  Biso   1.000  O
  O490     1.0000 0.14697  0.97163  0.53269  Biso   1.000  O
  O491     1.0000 0.12852  0.99114  0.57182  Biso   1.000  O
  O492     1.0000 0.13533  0.92464  0.49703  Biso   1.000  O
  O493     1.0000 0.97550  0.97278  0.26330  Biso   1.000  O
  O494     1.0000 0.02329  0.02644  0.26454  Biso   1.000  O
  O495     1.0000 0.94614  0.98554  0.27700  Biso   1.000  O
  O496     1.0000 0.59898  0.43223  0.54415  Biso   1.000  O
  O497     1.0000 0.59574  0.45742  0.57264  Biso   1.000  O
  O498     1.0000 0.62826  0.44030  0.52122  Biso   1.000  O
  O499     1.0000 0.64697  0.47163  0.53269  Biso   1.000  O
  O500     1.0000 0.62852  0.49114  0.57182  Biso   1.000  O
  O501     1.0000 0.63533  0.42464  0.49703  Biso   1.000  O
  O502     1.0000 0.47550  0.47278  0.26330  Biso   1.000  O
  O503     1.0000 0.52329  0.52644  0.26454  Biso   1.000  O
  O504     1.0000 0.44614  0.48554  0.27700  Biso   1.000  O
  O505     1.0000 0.09898  0.10965  0.41049  Biso   1.000  O
  O506     1.0000 0.09574  0.08446  0.38200  Biso   1.000  O
  O507     1.0000 0.12826  0.10158  0.43342  Biso   1.000  O
  O508     1.0000 0.14697  0.07025  0.42195  Biso   1.000  O
  O509     1.0000 0.12852  0.05074  0.38282  Biso   1.000  O
  O510     1.0000 0.13533  0.11724  0.45761  Biso   1.000  O
  O511     1.0000 0.97550  0.06910  0.69134  Biso   1.000  O
  O512     1.0000 0.02329  0.01544  0.69010  Biso   1.000  O
  O513     1.0000 0.94614  0.05634  0.67764  Biso   1.000  O
  O514     1.0000 0.59898  0.60965  0.41049  Biso   1.000  O
  O515     1.0000 0.59574  0.58446  0.38200  Biso   1.000  O
  O516     1.0000 0.62826  0.60158  0.43342  Biso   1.000  O
  O517     1.0000 0.64697  0.57025  0.42195  Biso   1.000  O
  O518     1.0000 0.62852  0.55074  0.38282  Biso   1.000  O
  O519     1.0000 0.63533  0.61724  0.45761  Biso   1.000  O
  O520     1.0000 0.47550  0.56910  0.69134  Biso   1.000  O
  O521     1.0000 0.52329  0.51544  0.69010  Biso   1.000  O
  O522     1.0000 0.44614  0.55634  0.67764  Biso   1.000  O
  O523     1.0000 0.09898  0.60965  0.91049  Biso   1.000  O
  O524     1.0000 0.09574  0.58446  0.88200  Biso   1.000  O
  O525     1.0000 0.12826  0.60158  0.93342  Biso   1.000  O
  O526     1.0000 0.14697  0.57025  0.92195  Biso   1.000  O
  O527     1.0000 0.12852  0.55074  0.88282  Biso   1.000  O
  O528     1.0000 0.13533  0.61724  0.95761  Biso   1.000  O
  O529     1.0000 0.97550  0.56910  0.19134  Biso   1.000  O
  O530     1.0000 0.02329  0.51544  0.19010  Biso   1.000  O
  O531     1.0000 0.94614  0.55634  0.17764  Biso   1.000  O
  O532     1.0000 0.59898  0.10965  0.91049  Biso   1.000  O
  O533     1.0000 0.59574  0.08446  0.88200  Biso   1.000  O
  O534     1.0000 0.62826  0.10158  0.93342  Biso   1.000  O
  O535     1.0000 0.64697  0.07025  0.92195  Biso   1.000  O
  O536     1.0000 0.62852  0.05074  0.88282  Biso   1.000  O
  O537     1.0000 0.63533  0.11724  0.95761  Biso   1.000  O
  O538     1.0000 0.47550  0.06910  0.19134  Biso   1.000  O
  O539     1.0000 0.52329  0.01544  0.19010  Biso   1.000  O
  O540     1.0000 0.44614  0.05634  0.17764  Biso   1.000  O
  O541     1.0000 0.35708  0.10965  0.04415  Biso   1.000  O
  O542     1.0000 0.36032  0.08446  0.07264  Biso   1.000  O
  O543     1.0000 0.32780  0.10158  0.02122  Biso   1.000  O
  O544     1.0000 0.30909  0.07025  0.03269  Biso   1.000  O
  O545     1.0000 0.32754  0.05074  0.07182  Biso   1.000  O
  O546     1.0000 0.32073  0.11724  0.99703  Biso   1.000  O
  O547     1.0000 0.48056  0.06910  0.76330  Biso   1.000  O
  O548     1.0000 0.43277  0.01544  0.76454  Biso   1.000  O
  O549     1.0000 0.50992  0.05634  0.77700  Biso   1.000  O
  O550     1.0000 0.85708  0.60965  0.04415  Biso   1.000  O
  O551     1.0000 0.86032  0.58446  0.07264  Biso   1.000  O
  O552     1.0000 0.82780  0.60158  0.02122  Biso   1.000  O
  O553     1.0000 0.80909  0.57025  0.03269  Biso   1.000  O
  O554     1.0000 0.82754  0.55074  0.07182  Biso   1.000  O
  O555     1.0000 0.82073  0.61724  0.99703  Biso   1.000  O
  O556     1.0000 0.98056  0.56910  0.76330  Biso   1.000  O
  O557     1.0000 0.93277  0.51544  0.76454  Biso   1.000  O
  O558     1.0000 0.00992  0.55634  0.77700  Biso   1.000  O
  O559     1.0000 0.35708  0.60965  0.54415  Biso   1.000  O
  O560     1.0000 0.36032  0.58446  0.57264  Biso   1.000  O
  O561     1.0000 0.32780  0.60158  0.52122  Biso   1.000  O
  O562     1.0000 0.30909  0.57025  0.53269  Biso   1.000  O
  O563     1.0000 0.32754  0.55074  0.57182  Biso   1.000  O
  O564     1.0000 0.32073  0.61724  0.49703  Biso   1.000  O
  O565     1.0000 0.48056  0.56910  0.26330  Biso   1.000  O
  O566     1.0000 0.43277  0.51544  0.26454  Biso   1.000  O
  O567     1.0000 0.50992  0.55634  0.27700  Biso   1.000  O
  O568     1.0000 0.85708  0.10965  0.54415  Biso   1.000  O
  O569     1.0000 0.86032  0.08446  0.57264  Biso   1.000  O
  O570     1.0000 0.82780  0.10158  0.52122  Biso   1.000  O
  O571     1.0000 0.80909  0.07025  0.53269  Biso   1.000  O
  O572     1.0000 0.82754  0.05074  0.57182  Biso   1.000  O
  O573     1.0000 0.82073  0.11724  0.49703  Biso   1.000  O
  O574     1.0000 0.98056  0.06910  0.26330  Biso   1.000  O
  O575     1.0000 0.93277  0.01544  0.26454  Biso   1.000  O
  O576     1.0000 0.00992  0.05634  0.27700  Biso   1.000  O
  O577     1.0000 0.38932  0.45411  0.35637  Biso   1.000  O
  O578     1.0000 0.41451  0.42562  0.35961  Biso   1.000  O
  O579     1.0000 0.39739  0.47704  0.32709  Biso   1.000  O
  O580     1.0000 0.42872  0.46557  0.30838  Biso   1.000  O
  O581     1.0000 0.44823  0.42644  0.32683  Biso   1.000  O
  O582     1.0000 0.38173  0.50123  0.32002  Biso   1.000  O
  O583     1.0000 0.42987  0.73496  0.47985  Biso   1.000  O
  O584     1.0000 0.48353  0.73372  0.43206  Biso   1.000  O
  O585     1.0000 0.44263  0.72126  0.50921  Biso   1.000  O
  O586     1.0000 0.88932  0.95411  0.35637  Biso   1.000  O
  O587     1.0000 0.91451  0.92562  0.35961  Biso   1.000  O
  O588     1.0000 0.89739  0.97704  0.32709  Biso   1.000  O
  O589     1.0000 0.92872  0.96557  0.30838  Biso   1.000  O
  O590     1.0000 0.94823  0.92644  0.32683  Biso   1.000  O
  O591     1.0000 0.88173  0.00123  0.32002  Biso   1.000  O
  O592     1.0000 0.92987  0.23496  0.47985  Biso   1.000  O
  O593     1.0000 0.98353  0.23372  0.43206  Biso   1.000  O
  O594     1.0000 0.94263  0.22126  0.50921  Biso   1.000  O
  O595     1.0000 0.38932  0.95411  0.85637  Biso   1.000  O
  O596     1.0000 0.41451  0.92562  0.85961  Biso   1.000  O
  O597     1.0000 0.39739  0.97704  0.82709  Biso   1.000  O
  O598     1.0000 0.42872  0.96557  0.80838  Biso   1.000  O
  O599     1.0000 0.44823  0.92644  0.82683  Biso   1.000  O
  O600     1.0000 0.38173  0.00123  0.82002  Biso   1.000  O
  O601     1.0000 0.42987  0.23496  0.97985  Biso   1.000  O
  O602     1.0000 0.48353  0.23372  0.93206  Biso   1.000  O
  O603     1.0000 0.44263  0.22126  0.00921  Biso   1.000  O
  O604     1.0000 0.88932  0.45411  0.85637  Biso   1.000  O
  O605     1.0000 0.91451  0.42562  0.85961  Biso   1.000  O
  O606     1.0000 0.89739  0.47704  0.82709  Biso   1.000  O
  O607     1.0000 0.92872  0.46557  0.80838  Biso   1.000  O
  O608     1.0000 0.94823  0.42644  0.82683  Biso   1.000  O
  O609     1.0000 0.88173  0.50123  0.82002  Biso   1.000  O
  O610     1.0000 0.92987  0.73496  0.97985  Biso   1.000  O
  O611     1.0000 0.98353  0.73372  0.93206  Biso   1.000  O
  O612     1.0000 0.94263  0.72126  0.00921  Biso   1.000  O
  O613     1.0000 0.38932  0.08777  0.09827  Biso   1.000  O
  O614     1.0000 0.41451  0.11626  0.09503  Biso   1.000  O
  O615     1.0000 0.39739  0.06484  0.12755  Biso   1.000  O
  O616     1.0000 0.42872  0.07631  0.14626  Biso   1.000  O
  O617     1.0000 0.44823  0.11544  0.12781  Biso   1.000  O
  O618     1.0000 0.38173  0.04065  0.13462  Biso   1.000  O
  O619     1.0000 0.42987  0.80692  0.97479  Biso   1.000  O
  O620     1.0000 0.48353  0.80816  0.02258  Biso   1.000  O
  O621     1.0000 0.44263  0.82062  0.94543  Biso   1.000  O
  O622     1.0000 0.88932  0.58777  0.09827  Biso   1.000  O
  O623     1.0000 0.91451  0.61626  0.09503  Biso   1.000  O
  O624     1.0000 0.89739  0.56484  0.12755  Biso   1.000  O
  O625     1.0000 0.92872  0.57631  0.14626  Biso   1.000  O
  O626     1.0000 0.94823  0.61544  0.12781  Biso   1.000  O
  O627     1.0000 0.88173  0.54065  0.13462  Biso   1.000  O
  O628     1.0000 0.92987  0.30692  0.97479  Biso   1.000  O
  O629     1.0000 0.98353  0.30816  0.02258  Biso   1.000  O
  O630     1.0000 0.94263  0.32062  0.94543  Biso   1.000  O
  O631     1.0000 0.38932  0.58777  0.59827  Biso   1.000  O
  O632     1.0000 0.41451  0.61626  0.59503  Biso   1.000  O
  O633     1.0000 0.39739  0.56484  0.62755  Biso   1.000  O
  O634     1.0000 0.42872  0.57631  0.64626  Biso   1.000  O
  O635     1.0000 0.44823  0.61544  0.62781  Biso   1.000  O
  O636     1.0000 0.38173  0.54065  0.63462  Biso   1.000  O
  O637     1.0000 0.42987  0.30692  0.47479  Biso   1.000  O
  O638     1.0000 0.48353  0.30816  0.52258  Biso   1.000  O
  O639     1.0000 0.44263  0.32062  0.44543  Biso   1.000  O
  O640     1.0000 0.88932  0.08777  0.59827  Biso   1.000  O
  O641     1.0000 0.91451  0.11626  0.59503  Biso   1.000  O
  O642     1.0000 0.89739  0.06484  0.62755  Biso   1.000  O
  O643     1.0000 0.92872  0.07631  0.64626  Biso   1.000  O
  O644     1.0000 0.94823  0.11544  0.62781  Biso   1.000  O
  O645     1.0000 0.88173  0.04065  0.63462  Biso   1.000  O
  O646     1.0000 0.92987  0.80692  0.47479  Biso   1.000  O
  O647     1.0000 0.98353  0.80816  0.52258  Biso   1.000  O
  O648     1.0000 0.94263  0.82062  0.44543  Biso   1.000  O
  O649     1.0000 0.06674  0.45411  0.09827  Biso   1.000  O
  O650     1.0000 0.04155  0.42562  0.09503  Biso   1.000  O
  O651     1.0000 0.05867  0.47704  0.12755  Biso   1.000  O
  O652     1.0000 0.02734  0.46557  0.14626  Biso   1.000  O
  O653     1.0000 0.00783  0.42644  0.12781  Biso   1.000  O
  O654     1.0000 0.07433  0.50123  0.13462  Biso   1.000  O
  O655     1.0000 0.02619  0.73496  0.97479  Biso   1.000  O
  O656     1.0000 0.97253  0.73372  0.02258  Biso   1.000  O
  O657     1.0000 0.01343  0.72126  0.94543  Biso   1.000  O
  O658     1.0000 0.56674  0.95411  0.09827  Biso   1.000  O
  O659     1.0000 0.54155  0.92562  0.09503  Biso   1.000  O
  O660     1.0000 0.55867  0.97704  0.12755  Biso   1.000  O
  O661     1.0000 0.52734  0.96557  0.14626  Biso   1.000  O
  O662     1.0000 0.50783  0.92644  0.12781  Biso   1.000  O
  O663     1.0000 0.57433  0.00123  0.13462  Biso   1.000  O
  O664     1.0000 0.52619  0.23496  0.97479  Biso   1.000  O
  O665     1.0000 0.47253  0.23372  0.02258  Biso   1.000  O
  O666     1.0000 0.51343  0.22126  0.94543  Biso   1.000  O
  O667     1.0000 0.06674  0.95411  0.59827  Biso   1.000  O
  O668     1.0000 0.04155  0.92562  0.59503  Biso   1.000  O
  O669     1.0000 0.05867  0.97704  0.62755  Biso   1.000  O
  O670     1.0000 0.02734  0.96557  0.64626  Biso   1.000  O
  O671     1.0000 0.00783  0.92644  0.62781  Biso   1.000  O
  O672     1.0000 0.07433  0.00123  0.63462  Biso   1.000  O
  O673     1.0000 0.02619  0.23496  0.47479  Biso   1.000  O
  O674     1.0000 0.97253  0.23372  0.52258  Biso   1.000  O
  O675     1.0000 0.01343  0.22126  0.44543  Biso   1.000  O
  O676     1.0000 0.56674  0.45411  0.59827  Biso   1.000  O
  O677     1.0000 0.54155  0.42562  0.59503  Biso   1.000  O
  O678     1.0000 0.55867  0.47704  0.62755  Biso   1.000  O
  O679     1.0000 0.52734  0.46557  0.64626  Biso   1.000  O
  O680     1.0000 0.50783  0.42644  0.62781  Biso   1.000  O
  O681     1.0000 0.57433  0.50123  0.63462  Biso   1.000  O
  O682     1.0000 0.52619  0.73496  0.47479  Biso   1.000  O
  O683     1.0000 0.47253  0.73372  0.52258  Biso   1.000  O
  O684     1.0000 0.51343  0.72126  0.44543  Biso   1.000  O
  O685     1.0000 0.06674  0.08777  0.35637  Biso   1.000  O
  O686     1.0000 0.04155  0.11626  0.35961  Biso   1.000  O
  O687     1.0000 0.05867  0.06484  0.32709  Biso   1.000  O
  O688     1.0000 0.02734  0.07631  0.30838  Biso   1.000  O
  O689     1.0000 0.00783  0.11544  0.32683  Biso   1.000  O
  O690     1.0000 0.07433  0.04065  0.32002  Biso   1.000  O
  O691     1.0000 0.02619  0.80692  0.47985  Biso   1.000  O
  O692     1.0000 0.97253  0.80816  0.43206  Biso   1.000  O
  O693     1.0000 0.01343  0.82062  0.50921  Biso   1.000  O
  O694     1.0000 0.56674  0.58777  0.35637  Biso   1.000  O
  O695     1.0000 0.54155  0.61626  0.35961  Biso   1.000  O
  O696     1.0000 0.55867  0.56484  0.32709  Biso   1.000  O
  O697     1.0000 0.52734  0.57631  0.30838  Biso   1.000  O
  O698     1.0000 0.50783  0.61544  0.32683  Biso   1.000  O
  O699     1.0000 0.57433  0.54065  0.32002  Biso   1.000  O
  O700     1.0000 0.52619  0.30692  0.47985  Biso   1.000  O
  O701     1.0000 0.47253  0.30816  0.43206  Biso   1.000  O
  O702     1.0000 0.51343  0.32062  0.50921  Biso   1.000  O
  O703     1.0000 0.06674  0.58777  0.85637  Biso   1.000  O
  O704     1.0000 0.04155  0.61626  0.85961  Biso   1.000  O
  O705     1.0000 0.05867  0.56484  0.82709  Biso   1.000  O
  O706     1.0000 0.02734  0.57631  0.80838  Biso   1.000  O
  O707     1.0000 0.00783  0.61544  0.82683  Biso   1.000  O
  O708     1.0000 0.07433  0.54065  0.82002  Biso   1.000  O
  O709     1.0000 0.02619  0.30692  0.97985  Biso   1.000  O
  O710     1.0000 0.97253  0.30816  0.93206  Biso   1.000  O
  O711     1.0000 0.01343  0.32062  0.00921  Biso   1.000  O
  O712     1.0000 0.56674  0.08777  0.85637  Biso   1.000  O
  O713     1.0000 0.54155  0.11626  0.85961  Biso   1.000  O
  O714     1.0000 0.55867  0.06484  0.82709  Biso   1.000  O
  O715     1.0000 0.52734  0.07631  0.80838  Biso   1.000  O
  O716     1.0000 0.50783  0.11544  0.82683  Biso   1.000  O
  O717     1.0000 0.57433  0.04065  0.82002  Biso   1.000  O
  O718     1.0000 0.52619  0.80692  0.97985  Biso   1.000  O
  O719     1.0000 0.47253  0.80816  0.93206  Biso   1.000  O
  O720     1.0000 0.51343  0.82062  0.00921  Biso   1.000  O
  O721     1.0000 0.41120  0.39999  0.38861  Biso   1.000  O
  O722     1.0000 0.38271  0.40323  0.41380  Biso   1.000  O
  O723     1.0000 0.43413  0.37071  0.39668  Biso   1.000  O
  O724     1.0000 0.42266  0.35200  0.42801  Biso   1.000  O
  O725     1.0000 0.38353  0.37045  0.44752  Biso   1.000  O
  O726     1.0000 0.45832  0.36364  0.38102  Biso   1.000  O
  O727     1.0000 0.69205  0.52347  0.42916  Biso   1.000  O
  O728     1.0000 0.69081  0.47568  0.48282  Biso   1.000  O
  O729     1.0000 0.67835  0.55283  0.44192  Biso   1.000  O
  O730     1.0000 0.91120  0.89999  0.38861  Biso   1.000  O
  O731     1.0000 0.88271  0.90323  0.41380  Biso   1.000  O
  O732     1.0000 0.93413  0.87071  0.39668  Biso   1.000  O
  O733     1.0000 0.92266  0.85200  0.42801  Biso   1.000  O
  O734     1.0000 0.88353  0.87045  0.44752  Biso   1.000  O
  O735     1.0000 0.95832  0.86364  0.38102  Biso   1.000  O
  O736     1.0000 0.19205  0.02347  0.42916  Biso   1.000  O
  O737     1.0000 0.19081  0.97568  0.48282  Biso   1.000  O
  O738     1.0000 0.17835  0.05283  0.44192  Biso   1.000  O
  O739     1.0000 0.41120  0.89999  0.88861  Biso   1.000  O
  O740     1.0000 0.38271  0.90323  0.91380  Biso   1.000  O
  O741     1.0000 0.43413  0.87071  0.89668  Biso   1.000  O
  O742     1.0000 0.42266  0.85200  0.92801  Biso   1.000  O
  O743     1.0000 0.38353  0.87045  0.94752  Biso   1.000  O
  O744     1.0000 0.45832  0.86364  0.88102  Biso   1.000  O
  O745     1.0000 0.69205  0.02347  0.92916  Biso   1.000  O
  O746     1.0000 0.69081  0.97568  0.98282  Biso   1.000  O
  O747     1.0000 0.67835  0.05283  0.94192  Biso   1.000  O
  O748     1.0000 0.91120  0.39999  0.88861  Biso   1.000  O
  O749     1.0000 0.88271  0.40323  0.91380  Biso   1.000  O
  O750     1.0000 0.93413  0.37071  0.89668  Biso   1.000  O
  O751     1.0000 0.92266  0.35200  0.92801  Biso   1.000  O
  O752     1.0000 0.88353  0.37045  0.94752  Biso   1.000  O
  O753     1.0000 0.95832  0.36364  0.88102  Biso   1.000  O
  O754     1.0000 0.19205  0.52347  0.92916  Biso   1.000  O
  O755     1.0000 0.19081  0.47568  0.98282  Biso   1.000  O
  O756     1.0000 0.17835  0.55283  0.94192  Biso   1.000  O
  O757     1.0000 0.04486  0.14189  0.38861  Biso   1.000  O
  O758     1.0000 0.07335  0.13865  0.41380  Biso   1.000  O
  O759     1.0000 0.02193  0.17117  0.39668  Biso   1.000  O
  O760     1.0000 0.03340  0.18988  0.42801  Biso   1.000  O
  O761     1.0000 0.07253  0.17143  0.44752  Biso   1.000  O
  O762     1.0000 0.99774  0.17824  0.38102  Biso   1.000  O
  O763     1.0000 0.76401  0.01841  0.42916  Biso   1.000  O
  O764     1.0000 0.76525  0.06620  0.48282  Biso   1.000  O
  O765     1.0000 0.77771  0.98905  0.44192  Biso   1.000  O
  O766     1.0000 0.54486  0.64189  0.38861  Biso   1.000  O
  O767     1.0000 0.57335  0.63865  0.41380  Biso   1.000  O
  O768     1.0000 0.52193  0.67117  0.39668  Biso   1.000  O
  O769     1.0000 0.53340  0.68988  0.42801  Biso   1.000  O
  O770     1.0000 0.57253  0.67143  0.44752  Biso   1.000  O
  O771     1.0000 0.49774  0.67824  0.38102  Biso   1.000  O
  O772     1.0000 0.26401  0.51841  0.42916  Biso   1.000  O
  O773     1.0000 0.26525  0.56620  0.48282  Biso   1.000  O
  O774     1.0000 0.27771  0.48905  0.44192  Biso   1.000  O
  O775     1.0000 0.04486  0.64189  0.88861  Biso   1.000  O
  O776     1.0000 0.07335  0.63865  0.91380  Biso   1.000  O
  O777     1.0000 0.02193  0.67117  0.89668  Biso   1.000  O
  O778     1.0000 0.03340  0.68988  0.92801  Biso   1.000  O
  O779     1.0000 0.07253  0.67143  0.94752  Biso   1.000  O
  O780     1.0000 0.99774  0.67824  0.88102  Biso   1.000  O
  O781     1.0000 0.76401  0.51841  0.92916  Biso   1.000  O
  O782     1.0000 0.76525  0.56620  0.98282  Biso   1.000  O
  O783     1.0000 0.77771  0.48905  0.94192  Biso   1.000  O
  O784     1.0000 0.54486  0.14189  0.88861  Biso   1.000  O
  O785     1.0000 0.57335  0.13865  0.91380  Biso   1.000  O
  O786     1.0000 0.52193  0.17117  0.89668  Biso   1.000  O
  O787     1.0000 0.53340  0.18988  0.92801  Biso   1.000  O
  O788     1.0000 0.57253  0.17143  0.94752  Biso   1.000  O
  O789     1.0000 0.49774  0.17824  0.88102  Biso   1.000  O
  O790     1.0000 0.26401  0.01841  0.92916  Biso   1.000  O
  O791     1.0000 0.26525  0.06620  0.98282  Biso   1.000  O
  O792     1.0000 0.27771  0.98905  0.94192  Biso   1.000  O
  O793     1.0000 0.41120  0.14189  0.06603  Biso   1.000  O
  O794     1.0000 0.38271  0.13865  0.04084  Biso   1.000  O
  O795     1.0000 0.43413  0.17117  0.05796  Biso   1.000  O
  O796     1.0000 0.42266  0.18988  0.02663  Biso   1.000  O
  O797     1.0000 0.38353  0.17143  0.00712  Biso   1.000  O
  O798     1.0000 0.45832  0.17824  0.07362  Biso   1.000  O
  O799     1.0000 0.69205  0.01841  0.02548  Biso   1.000  O
  O800     1.0000 0.69081  0.06620  0.97182  Biso   1.000  O
  O801     1.0000 0.67835  0.98905  0.01272  Biso   1.000  O
  O802     1.0000 0.91120  0.64189  0.06603  Biso   1.000  O
  O803     1.0000 0.88271  0.63865  0.04084  Biso   1.000  O
  O804     1.0000 0.93413  0.67117  0.05796  Biso   1.000  O
  O805     1.0000 0.92266  0.68988  0.02663  Biso   1.000  O
  O806     1.0000 0.88353  0.67143  0.00712  Biso   1.000  O
  O807     1.0000 0.95832  0.67824  0.07362  Biso   1.000  O
  O808     1.0000 0.19205  0.51841  0.02548  Biso   1.000  O
  O809     1.0000 0.19081  0.56620  0.97182  Biso   1.000  O
  O810     1.0000 0.17835  0.48905  0.01272  Biso   1.000  O
  O811     1.0000 0.41120  0.64189  0.56603  Biso   1.000  O
  O812     1.0000 0.38271  0.63865  0.54084  Biso   1.000  O
  O813     1.0000 0.43413  0.67117  0.55796  Biso   1.000  O
  O814     1.0000 0.42266  0.68988  0.52663  Biso   1.000  O
  O815     1.0000 0.38353  0.67143  0.50712  Biso   1.000  O
  O816     1.0000 0.45832  0.67824  0.57362  Biso   1.000  O
  O817     1.0000 0.69205  0.51841  0.52548  Biso   1.000  O
  O818     1.0000 0.69081  0.56620  0.47182  Biso   1.000  O
  O819     1.0000 0.67835  0.48905  0.51272  Biso   1.000  O
  O820     1.0000 0.91120  0.14189  0.56603  Biso   1.000  O
  O821     1.0000 0.88271  0.13865  0.54084  Biso   1.000  O
  O822     1.0000 0.93413  0.17117  0.55796  Biso   1.000  O
  O823     1.0000 0.92266  0.18988  0.52663  Biso   1.000  O
  O824     1.0000 0.88353  0.17143  0.50712  Biso   1.000  O
  O825     1.0000 0.95832  0.17824  0.57362  Biso   1.000  O
  O826     1.0000 0.19205  0.01841  0.52548  Biso   1.000  O
  O827     1.0000 0.19081  0.06620  0.47182  Biso   1.000  O
  O828     1.0000 0.17835  0.98905  0.51272  Biso   1.000  O
  O829     1.0000 0.04486  0.39999  0.06603  Biso   1.000  O
  O830     1.0000 0.07335  0.40323  0.04084  Biso   1.000  O
  O831     1.0000 0.02193  0.37071  0.05796  Biso   1.000  O
  O832     1.0000 0.03340  0.35200  0.02663  Biso   1.000  O
  O833     1.0000 0.07253  0.37045  0.00712  Biso   1.000  O
  O834     1.0000 0.99774  0.36364  0.07362  Biso   1.000  O
  O835     1.0000 0.76401  0.52347  0.02548  Biso   1.000  O
  O836     1.0000 0.76525  0.47568  0.97182  Biso   1.000  O
  O837     1.0000 0.77771  0.55283  0.01272  Biso   1.000  O
  O838     1.0000 0.54486  0.89999  0.06603  Biso   1.000  O
  O839     1.0000 0.57335  0.90323  0.04084  Biso   1.000  O
  O840     1.0000 0.52193  0.87071  0.05796  Biso   1.000  O
  O841     1.0000 0.53340  0.85200  0.02663  Biso   1.000  O
  O842     1.0000 0.57253  0.87045  0.00712  Biso   1.000  O
  O843     1.0000 0.49774  0.86364  0.07362  Biso   1.000  O
  O844     1.0000 0.26401  0.02347  0.02548  Biso   1.000  O
  O845     1.0000 0.26525  0.97568  0.97182  Biso   1.000  O
  O846     1.0000 0.27771  0.05283  0.01272  Biso   1.000  O
  O847     1.0000 0.04486  0.89999  0.56603  Biso   1.000  O
  O848     1.0000 0.07335  0.90323  0.54084  Biso   1.000  O
  O849     1.0000 0.02193  0.87071  0.55796  Biso   1.000  O
  O850     1.0000 0.03340  0.85200  0.52663  Biso   1.000  O
  O851     1.0000 0.07253  0.87045  0.50712  Biso   1.000  O
  O852     1.0000 0.99774  0.86364  0.57362  Biso   1.000  O
  O853     1.0000 0.76401  0.02347  0.52548  Biso   1.000  O
  O854     1.0000 0.76525  0.97568  0.47182  Biso   1.000  O
  O855     1.0000 0.77771  0.05283  0.51272  Biso   1.000  O
  O856     1.0000 0.54486  0.39999  0.56603  Biso   1.000  O
  O857     1.0000 0.57335  0.40323  0.54084  Biso   1.000  O
  O858     1.0000 0.52193  0.37071  0.55796  Biso   1.000  O
  O859     1.0000 0.53340  0.35200  0.52663  Biso   1.000  O
  O860     1.0000 0.57253  0.37045  0.50712  Biso   1.000  O
  O861     1.0000 0.49774  0.36364  0.57362  Biso   1.000  O
  O862     1.0000 0.26401  0.52347  0.52548  Biso   1.000  O
  O863     1.0000 0.26525  0.47568  0.47182  Biso   1.000  O
  O864     1.0000 0.27771  0.55283  0.51272  Biso   1.000  O
  O865     1.0000 0.72803  0.04631  0.45195  Biso   1.000  O
  O866     1.0000 0.22803  0.54631  0.45195  Biso   1.000  O
  O867     1.0000 0.72803  0.54631  0.95195  Biso   1.000  O
  O868     1.0000 0.22803  0.04631  0.95195  Biso   1.000  O
  O869     1.0000 0.72803  0.04631  0.00269  Biso   1.000  O
  O870     1.0000 0.22803  0.54631  0.00269  Biso   1.000  O
  O871     1.0000 0.72803  0.54631  0.50269  Biso   1.000  O
  O872     1.0000 0.22803  0.04631  0.50269  Biso   1.000  O
  O873     1.0000 0.72803  0.49557  0.00269  Biso   1.000  O
  O874     1.0000 0.22803  0.99557  0.00269  Biso   1.000  O
  O875     1.0000 0.72803  0.99557  0.50269  Biso   1.000  O
  O876     1.0000 0.22803  0.49557  0.50269  Biso   1.000  O
  O877     1.0000 0.72803  0.49557  0.45195  Biso   1.000  O
  O878     1.0000 0.22803  0.99557  0.45195  Biso   1.000  O
  O879     1.0000 0.72803  0.99557  0.95195  Biso   1.000  O
  O880     1.0000 0.22803  0.49557  0.95195  Biso   1.000  O
  O881     1.0000 0.45266  0.77094  0.45195  Biso   1.000  O
  O882     1.0000 0.95266  0.27094  0.45195  Biso   1.000  O
  O883     1.0000 0.45266  0.27094  0.95195  Biso   1.000  O
  O884     1.0000 0.95266  0.77094  0.95195  Biso   1.000  O
  O885     1.0000 0.00340  0.77094  0.45195  Biso   1.000  O
  O886     1.0000 0.50340  0.27094  0.45195  Biso   1.000  O
  O887     1.0000 0.00340  0.27094  0.95195  Biso   1.000  O
  O888     1.0000 0.50340  0.77094  0.95195  Biso   1.000  O
  O889     1.0000 0.00340  0.77094  0.00269  Biso   1.000  O
  O890     1.0000 0.50340  0.27094  0.00269  Biso   1.000  O
  O891     1.0000 0.00340  0.27094  0.50269  Biso   1.000  O
  O892     1.0000 0.50340  0.77094  0.50269  Biso   1.000  O
  O893     1.0000 0.45266  0.77094  0.00269  Biso   1.000  O
  O894     1.0000 0.95266  0.27094  0.00269  Biso   1.000  O
  O895     1.0000 0.45266  0.27094  0.50269  Biso   1.000  O
  O896     1.0000 0.95266  0.77094  0.50269  Biso   1.000  O
  O897     1.0000 0.45266  0.04631  0.72732  Biso   1.000  O
  O898     1.0000 0.95266  0.54631  0.72732  Biso   1.000  O
  O899     1.0000 0.45266  0.54631  0.22732  Biso   1.000  O
  O900     1.0000 0.95266  0.04631  0.22732  Biso   1.000  O
  O901     1.0000 0.45266  0.49557  0.72732  Biso   1.000  O
  O902     1.0000 0.95266  0.99557  0.72732  Biso   1.000  O
  O903     1.0000 0.45266  0.99557  0.22732  Biso   1.000  O
  O904     1.0000 0.95266  0.49557  0.22732  Biso   1.000  O
  O905     1.0000 0.00340  0.49557  0.72732  Biso   1.000  O
  O906     1.0000 0.50340  0.99557  0.72732  Biso   1.000  O
  O907     1.0000 0.00340  0.99557  0.22732  Biso   1.000  O
  O908     1.0000 0.50340  0.49557  0.22732  Biso   1.000  O
  O909     1.0000 0.00340  0.04631  0.72732  Biso   1.000  O
  O910     1.0000 0.50340  0.54631  0.72732  Biso   1.000  O
  O911     1.0000 0.00340  0.54631  0.22732  Biso   1.000  O
