data_image0
_cell_length_a       20.269
_cell_length_b       20.269
_cell_length_c       39.645
_cell_angle_alpha    90
_cell_angle_beta     90
_cell_angle_gamma    90

_symmetry_space_group_name_H-M    "P 1"
_symmetry_int_tables_number       1

loop_
  _symmetry_equiv_pos_as_xyz
  'x, y, z'

loop_
  _atom_site_label
  _atom_site_occupancy
  _atom_site_fract_x
  _atom_site_fract_y
  _atom_site_fract_z
  _atom_site_thermal_displace_type
  _atom_site_B_iso_or_equiv
  _atom_site_type_symbol
  C1       1.0000 0.83192  0.14543  0.70088  Biso   1.000  C
  C2       1.0000 0.16808  0.85457  0.20088  Biso   1.000  C
  C3       1.0000 0.85457  0.83192  0.95088  Biso   1.000  C
  C4       1.0000 0.14543  0.16808  0.45088  Biso   1.000  C
  C5       1.0000 0.16808  0.14543  0.29912  Biso   1.000  C
  C6       1.0000 0.83192  0.85457  0.79912  Biso   1.000  C
  C7       1.0000 0.14543  0.83192  0.04912  Biso   1.000  C
  C8       1.0000 0.85457  0.16808  0.54912  Biso   1.000  C
  C9       1.0000 0.83189  0.00000  0.75000  Biso   1.000  C
  C10      1.0000 0.16811  0.00000  0.25000  Biso   1.000  C
  C11      1.0000 0.00000  0.83189  0.00000  Biso   1.000  C
  C12      1.0000 0.00000  0.16811  0.50000  Biso   1.000  C
  C13      1.0000 0.83810  0.88660  0.66140  Biso   1.000  C
  C14      1.0000 0.85780  0.82370  0.61330  Biso   1.000  C
  C15      1.0000 0.89760  0.99180  0.56180  Biso   1.000  C
  C16      1.0000 0.87830  0.05390  0.61070  Biso   1.000  C
  C17      1.0000 0.89570  0.70370  0.52370  Biso   1.000  C
  C18      1.0000 0.93410  0.68050  0.42370  Biso   1.000  C
  C19      1.0000 0.92420  0.86460  0.46480  Biso   1.000  C
  C20      1.0000 0.84020  0.49320  0.53150  Biso   1.000  C
  C21      1.0000 0.83440  0.38310  0.54390  Biso   1.000  C
  C22      1.0000 0.94840  0.34020  0.46400  Biso   1.000  C
  C23      1.0000 0.96080  0.44860  0.45290  Biso   1.000  C
  C24      1.0000 0.01750  0.74080  0.33740  Biso   1.000  C
  C25      1.0000 0.06460  0.76040  0.28570  Biso   1.000  C
  C26      1.0000 0.01520  0.95160  0.29290  Biso   1.000  C
  C27      1.0000 0.96730  0.93240  0.34470  Biso   1.000  C
  C28      1.0000 0.16190  0.11340  0.16140  Biso   1.000  C
  C29      1.0000 0.14220  0.17630  0.11330  Biso   1.000  C
  C30      1.0000 0.10240  0.00820  0.06180  Biso   1.000  C
  C31      1.0000 0.12170  0.94610  0.11070  Biso   1.000  C
  C32      1.0000 0.10430  0.29630  0.02370  Biso   1.000  C
  C33      1.0000 0.06590  0.31950  0.92370  Biso   1.000  C
  C34      1.0000 0.07580  0.13540  0.96480  Biso   1.000  C
  C35      1.0000 0.15980  0.50680  0.03150  Biso   1.000  C
  C36      1.0000 0.16560  0.61690  0.04390  Biso   1.000  C
  C37      1.0000 0.05160  0.65980  0.96400  Biso   1.000  C
  C38      1.0000 0.03920  0.55140  0.95290  Biso   1.000  C
  C39      1.0000 0.98250  0.25920  0.83740  Biso   1.000  C
  C40      1.0000 0.93540  0.23960  0.78570  Biso   1.000  C
  C41      1.0000 0.98480  0.04840  0.79290  Biso   1.000  C
  C42      1.0000 0.03270  0.06760  0.84470  Biso   1.000  C
  C43      1.0000 0.11340  0.83810  0.91140  Biso   1.000  C
  C44      1.0000 0.17630  0.85780  0.86330  Biso   1.000  C
  C45      1.0000 0.00820  0.89760  0.81180  Biso   1.000  C
  C46      1.0000 0.94610  0.87830  0.86070  Biso   1.000  C
  C47      1.0000 0.29630  0.89570  0.77370  Biso   1.000  C
  C48      1.0000 0.31950  0.93410  0.67370  Biso   1.000  C
  C49      1.0000 0.13540  0.92420  0.71480  Biso   1.000  C
  C50      1.0000 0.50680  0.84020  0.78150  Biso   1.000  C
  C51      1.0000 0.61690  0.83440  0.79390  Biso   1.000  C
  C52      1.0000 0.65980  0.94840  0.71400  Biso   1.000  C
  C53      1.0000 0.55140  0.96080  0.70290  Biso   1.000  C
  C54      1.0000 0.25920  0.01750  0.58740  Biso   1.000  C
  C55      1.0000 0.23960  0.06460  0.53570  Biso   1.000  C
  C56      1.0000 0.04840  0.01520  0.54290  Biso   1.000  C
  C57      1.0000 0.06760  0.96730  0.59470  Biso   1.000  C
  C58      1.0000 0.88660  0.16190  0.41140  Biso   1.000  C
  C59      1.0000 0.82370  0.14220  0.36330  Biso   1.000  C
  C60      1.0000 0.99180  0.10240  0.31180  Biso   1.000  C
  C61      1.0000 0.05390  0.12170  0.36070  Biso   1.000  C
  C62      1.0000 0.70370  0.10430  0.27370  Biso   1.000  C
  C63      1.0000 0.68050  0.06590  0.17370  Biso   1.000  C
  C64      1.0000 0.86460  0.07580  0.21480  Biso   1.000  C
  C65      1.0000 0.49320  0.15980  0.28150  Biso   1.000  C
  C66      1.0000 0.38310  0.16560  0.29390  Biso   1.000  C
  C67      1.0000 0.34020  0.05160  0.21400  Biso   1.000  C
  C68      1.0000 0.44860  0.03920  0.20290  Biso   1.000  C
  C69      1.0000 0.74080  0.98250  0.08740  Biso   1.000  C
  C70      1.0000 0.76040  0.93540  0.03570  Biso   1.000  C
  C71      1.0000 0.95160  0.98480  0.04290  Biso   1.000  C
  C72      1.0000 0.93240  0.03270  0.09470  Biso   1.000  C
  C73      1.0000 0.16190  0.88660  0.33860  Biso   1.000  C
  C74      1.0000 0.14220  0.82370  0.38670  Biso   1.000  C
  C75      1.0000 0.10240  0.99180  0.43820  Biso   1.000  C
  C76      1.0000 0.12170  0.05390  0.38930  Biso   1.000  C
  C77      1.0000 0.10430  0.70370  0.47630  Biso   1.000  C
  C78      1.0000 0.06590  0.68050  0.57630  Biso   1.000  C
  C79      1.0000 0.07580  0.86460  0.53520  Biso   1.000  C
  C80      1.0000 0.15980  0.49320  0.46850  Biso   1.000  C
  C81      1.0000 0.16560  0.38310  0.45610  Biso   1.000  C
  C82      1.0000 0.05160  0.34020  0.53600  Biso   1.000  C
  C83      1.0000 0.03920  0.44860  0.54710  Biso   1.000  C
  C84      1.0000 0.98250  0.74080  0.66260  Biso   1.000  C
  C85      1.0000 0.93540  0.76040  0.71430  Biso   1.000  C
  C86      1.0000 0.98480  0.95160  0.70710  Biso   1.000  C
  C87      1.0000 0.03270  0.93240  0.65530  Biso   1.000  C
  C88      1.0000 0.83810  0.11340  0.83860  Biso   1.000  C
  C89      1.0000 0.85780  0.17630  0.88670  Biso   1.000  C
  C90      1.0000 0.89760  0.00820  0.93820  Biso   1.000  C
  C91      1.0000 0.87830  0.94610  0.88930  Biso   1.000  C
  C92      1.0000 0.89570  0.29630  0.97630  Biso   1.000  C
  C93      1.0000 0.93410  0.31950  0.07630  Biso   1.000  C
  C94      1.0000 0.92420  0.13540  0.03520  Biso   1.000  C
  C95      1.0000 0.84020  0.50680  0.96850  Biso   1.000  C
  C96      1.0000 0.83440  0.61690  0.95610  Biso   1.000  C
  C97      1.0000 0.94840  0.65980  0.03600  Biso   1.000  C
  C98      1.0000 0.96080  0.55140  0.04710  Biso   1.000  C
  C99      1.0000 0.01750  0.25920  0.16260  Biso   1.000  C
  C100     1.0000 0.06460  0.23960  0.21430  Biso   1.000  C
  C101     1.0000 0.01520  0.04840  0.20710  Biso   1.000  C
  C102     1.0000 0.96730  0.06760  0.15530  Biso   1.000  C
  C103     1.0000 0.88660  0.83810  0.08860  Biso   1.000  C
  C104     1.0000 0.82370  0.85780  0.13670  Biso   1.000  C
  C105     1.0000 0.99180  0.89760  0.18820  Biso   1.000  C
  C106     1.0000 0.05390  0.87830  0.13930  Biso   1.000  C
  C107     1.0000 0.70370  0.89570  0.22630  Biso   1.000  C
  C108     1.0000 0.68050  0.93410  0.32630  Biso   1.000  C
  C109     1.0000 0.86460  0.92420  0.28520  Biso   1.000  C
  C110     1.0000 0.49320  0.84020  0.21850  Biso   1.000  C
  C111     1.0000 0.38310  0.83440  0.20610  Biso   1.000  C
  C112     1.0000 0.34020  0.94840  0.28600  Biso   1.000  C
  C113     1.0000 0.44860  0.96080  0.29710  Biso   1.000  C
  C114     1.0000 0.74080  0.01750  0.41260  Biso   1.000  C
  C115     1.0000 0.76040  0.06460  0.46430  Biso   1.000  C
  C116     1.0000 0.95160  0.01520  0.45710  Biso   1.000  C
  C117     1.0000 0.93240  0.96730  0.40530  Biso   1.000  C
  C118     1.0000 0.11340  0.16190  0.58860  Biso   1.000  C
  C119     1.0000 0.17630  0.14220  0.63670  Biso   1.000  C
  C120     1.0000 0.00820  0.10240  0.68820  Biso   1.000  C
  C121     1.0000 0.94610  0.12170  0.63930  Biso   1.000  C
  C122     1.0000 0.29630  0.10430  0.72630  Biso   1.000  C
  C123     1.0000 0.31950  0.06590  0.82630  Biso   1.000  C
  C124     1.0000 0.13540  0.07580  0.78520  Biso   1.000  C
  C125     1.0000 0.50680  0.15980  0.71850  Biso   1.000  C
  C126     1.0000 0.61690  0.16560  0.70610  Biso   1.000  C
  C127     1.0000 0.65980  0.05160  0.78600  Biso   1.000  C
  C128     1.0000 0.55140  0.03920  0.79710  Biso   1.000  C
  C129     1.0000 0.25920  0.98250  0.91260  Biso   1.000  C
  C130     1.0000 0.23960  0.93540  0.96430  Biso   1.000  C
  C131     1.0000 0.04840  0.98480  0.95710  Biso   1.000  C
  C132     1.0000 0.06760  0.03270  0.90530  Biso   1.000  C
  C133     1.0000 0.84388  0.01444  0.67218  Biso   1.000  C
  C134     1.0000 0.85580  0.97421  0.64040  Biso   1.000  C
  C135     1.0000 0.85019  0.90760  0.64118  Biso   1.000  C
  C136     1.0000 0.86205  0.86985  0.61265  Biso   1.000  C
  C137     1.0000 0.88077  0.90260  0.58249  Biso   1.000  C
  C138     1.0000 0.88593  0.97040  0.58192  Biso   1.000  C
  C139     1.0000 0.87409  0.00774  0.61093  Biso   1.000  C
  C140     1.0000 0.89277  0.86365  0.55212  Biso   1.000  C
  C141     1.0000 0.90075  0.83150  0.52792  Biso   1.000  C
  C142     1.0000 0.91096  0.78930  0.49908  Biso   1.000  C
  C143     1.0000 0.90600  0.72160  0.50244  Biso   1.000  C
  C144     1.0000 0.91570  0.67960  0.47555  Biso   1.000  C
  C145     1.0000 0.92834  0.70780  0.44270  Biso   1.000  C
  C146     1.0000 0.93183  0.77570  0.43967  Biso   1.000  C
  C147     1.0000 0.92264  0.81851  0.46737  Biso   1.000  C
  C148     1.0000 0.90940  0.61520  0.47893  Biso   1.000  C
  C149     1.0000 0.90750  0.55600  0.48310  Biso   1.000  C
  C150     1.0000 0.89900  0.48330  0.49131  Biso   1.000  C
  C151     1.0000 0.86290  0.46250  0.51802  Biso   1.000  C
  C152     1.0000 0.85970  0.39710  0.52537  Biso   1.000  C
  C153     1.0000 0.89244  0.35100  0.50626  Biso   1.000  C
  C154     1.0000 0.92830  0.37170  0.47802  Biso   1.000  C
  C155     1.0000 0.93410  0.43480  0.47098  Biso   1.000  C
  C156     1.0000 0.88950  0.27770  0.51641  Biso   1.000  C
  C157     1.0000 0.94820  0.80293  0.40655  Biso   1.000  C
  C158     1.0000 0.96387  0.81853  0.37946  Biso   1.000  C
  C159     1.0000 0.98873  0.83460  0.34572  Biso   1.000  C
  C160     1.0000 0.01760  0.78370  0.32837  Biso   1.000  C
  C161     1.0000 0.04664  0.79580  0.29799  Biso   1.000  C
  C162     1.0000 0.05026  0.85740  0.28504  Biso   1.000  C
  C163     1.0000 0.01694  0.90924  0.30245  Biso   1.000  C
  C164     1.0000 0.98776  0.89790  0.33275  Biso   1.000  C
  C165     1.0000 0.08670  0.87380  0.25265  Biso   1.000  C
  C166     1.0000 0.15612  0.98556  0.17218  Biso   1.000  C
  C167     1.0000 0.14420  0.02579  0.14040  Biso   1.000  C
  C168     1.0000 0.14981  0.09240  0.14118  Biso   1.000  C
  C169     1.0000 0.13795  0.13015  0.11265  Biso   1.000  C
  C170     1.0000 0.11923  0.09740  0.08249  Biso   1.000  C
  C171     1.0000 0.11407  0.02960  0.08192  Biso   1.000  C
  C172     1.0000 0.12591  0.99226  0.11093  Biso   1.000  C
  C173     1.0000 0.10723  0.13635  0.05212  Biso   1.000  C
  C174     1.0000 0.09925  0.16850  0.02792  Biso   1.000  C
  C175     1.0000 0.08904  0.21070  0.99908  Biso   1.000  C
  C176     1.0000 0.09400  0.27840  0.00244  Biso   1.000  C
  C177     1.0000 0.08430  0.32040  0.97555  Biso   1.000  C
  C178     1.0000 0.07166  0.29220  0.94270  Biso   1.000  C
  C179     1.0000 0.06817  0.22430  0.93967  Biso   1.000  C
  C180     1.0000 0.07736  0.18149  0.96737  Biso   1.000  C
  C181     1.0000 0.09060  0.38480  0.97893  Biso   1.000  C
  C182     1.0000 0.09250  0.44400  0.98310  Biso   1.000  C
  C183     1.0000 0.10100  0.51670  0.99131  Biso   1.000  C
  C184     1.0000 0.13710  0.53750  0.01802  Biso   1.000  C
  C185     1.0000 0.14030  0.60290  0.02537  Biso   1.000  C
  C186     1.0000 0.10756  0.64900  0.00626  Biso   1.000  C
  C187     1.0000 0.07170  0.62830  0.97802  Biso   1.000  C
  C188     1.0000 0.06590  0.56520  0.97098  Biso   1.000  C
  C189     1.0000 0.11050  0.72230  0.01641  Biso   1.000  C
  C190     1.0000 0.05180  0.19707  0.90655  Biso   1.000  C
  C191     1.0000 0.03613  0.18147  0.87946  Biso   1.000  C
  C192     1.0000 0.01127  0.16540  0.84572  Biso   1.000  C
  C193     1.0000 0.98240  0.21630  0.82837  Biso   1.000  C
  C194     1.0000 0.95336  0.20420  0.79799  Biso   1.000  C
  C195     1.0000 0.94974  0.14260  0.78504  Biso   1.000  C
  C196     1.0000 0.98306  0.09076  0.80245  Biso   1.000  C
  C197     1.0000 0.01224  0.10210  0.83275  Biso   1.000  C
  C198     1.0000 0.91330  0.12620  0.75265  Biso   1.000  C
  C199     1.0000 0.98556  0.84388  0.92218  Biso   1.000  C
  C200     1.0000 0.02579  0.85580  0.89040  Biso   1.000  C
  C201     1.0000 0.09240  0.85019  0.89118  Biso   1.000  C
  C202     1.0000 0.13015  0.86205  0.86265  Biso   1.000  C
  C203     1.0000 0.09740  0.88077  0.83249  Biso   1.000  C
  C204     1.0000 0.02960  0.88593  0.83192  Biso   1.000  C
  C205     1.0000 0.99226  0.87409  0.86093  Biso   1.000  C
  C206     1.0000 0.13635  0.89277  0.80212  Biso   1.000  C
  C207     1.0000 0.16850  0.90075  0.77792  Biso   1.000  C
  C208     1.0000 0.21070  0.91096  0.74908  Biso   1.000  C
  C209     1.0000 0.27840  0.90600  0.75244  Biso   1.000  C
  C210     1.0000 0.32040  0.91570  0.72555  Biso   1.000  C
  C211     1.0000 0.29220  0.92834  0.69270  Biso   1.000  C
  C212     1.0000 0.22430  0.93183  0.68967  Biso   1.000  C
  C213     1.0000 0.18149  0.92264  0.71737  Biso   1.000  C
  C214     1.0000 0.38480  0.90940  0.72893  Biso   1.000  C
  C215     1.0000 0.44400  0.90750  0.73310  Biso   1.000  C
  C216     1.0000 0.51670  0.89900  0.74131  Biso   1.000  C
  C217     1.0000 0.53750  0.86290  0.76802  Biso   1.000  C
  C218     1.0000 0.60290  0.85970  0.77537  Biso   1.000  C
  C219     1.0000 0.64900  0.89244  0.75626  Biso   1.000  C
  C220     1.0000 0.62830  0.92830  0.72802  Biso   1.000  C
  C221     1.0000 0.56520  0.93410  0.72098  Biso   1.000  C
  C222     1.0000 0.72230  0.88950  0.76641  Biso   1.000  C
  C223     1.0000 0.19707  0.94820  0.65655  Biso   1.000  C
  C224     1.0000 0.18147  0.96387  0.62946  Biso   1.000  C
  C225     1.0000 0.16540  0.98873  0.59572  Biso   1.000  C
  C226     1.0000 0.21630  0.01760  0.57837  Biso   1.000  C
  C227     1.0000 0.20420  0.04664  0.54799  Biso   1.000  C
  C228     1.0000 0.14260  0.05026  0.53504  Biso   1.000  C
  C229     1.0000 0.09076  0.01694  0.55245  Biso   1.000  C
  C230     1.0000 0.10210  0.98776  0.58275  Biso   1.000  C
  C231     1.0000 0.12620  0.08670  0.50265  Biso   1.000  C
  C232     1.0000 0.01444  0.15612  0.42218  Biso   1.000  C
  C233     1.0000 0.97421  0.14420  0.39040  Biso   1.000  C
  C234     1.0000 0.90760  0.14981  0.39118  Biso   1.000  C
  C235     1.0000 0.86985  0.13795  0.36265  Biso   1.000  C
  C236     1.0000 0.90260  0.11923  0.33249  Biso   1.000  C
  C237     1.0000 0.97040  0.11407  0.33192  Biso   1.000  C
  C238     1.0000 0.00774  0.12591  0.36093  Biso   1.000  C
  C239     1.0000 0.86365  0.10723  0.30212  Biso   1.000  C
  C240     1.0000 0.83150  0.09925  0.27792  Biso   1.000  C
  C241     1.0000 0.78930  0.08904  0.24908  Biso   1.000  C
  C242     1.0000 0.72160  0.09400  0.25244  Biso   1.000  C
  C243     1.0000 0.67960  0.08430  0.22555  Biso   1.000  C
  C244     1.0000 0.70780  0.07166  0.19270  Biso   1.000  C
  C245     1.0000 0.77570  0.06817  0.18967  Biso   1.000  C
  C246     1.0000 0.81851  0.07736  0.21737  Biso   1.000  C
  C247     1.0000 0.61520  0.09060  0.22893  Biso   1.000  C
  C248     1.0000 0.55600  0.09250  0.23310  Biso   1.000  C
  C249     1.0000 0.48330  0.10100  0.24131  Biso   1.000  C
  C250     1.0000 0.46250  0.13710  0.26802  Biso   1.000  C
  C251     1.0000 0.39710  0.14030  0.27537  Biso   1.000  C
  C252     1.0000 0.35100  0.10756  0.25626  Biso   1.000  C
  C253     1.0000 0.37170  0.07170  0.22802  Biso   1.000  C
  C254     1.0000 0.43480  0.06590  0.22098  Biso   1.000  C
  C255     1.0000 0.27770  0.11050  0.26641  Biso   1.000  C
  C256     1.0000 0.80293  0.05180  0.15655  Biso   1.000  C
  C257     1.0000 0.81853  0.03613  0.12946  Biso   1.000  C
  C258     1.0000 0.83460  0.01127  0.09572  Biso   1.000  C
  C259     1.0000 0.78370  0.98240  0.07837  Biso   1.000  C
  C260     1.0000 0.79580  0.95336  0.04799  Biso   1.000  C
  C261     1.0000 0.85740  0.94974  0.03504  Biso   1.000  C
  C262     1.0000 0.90924  0.98306  0.05245  Biso   1.000  C
  C263     1.0000 0.89790  0.01224  0.08275  Biso   1.000  C
  C264     1.0000 0.87380  0.91330  0.00265  Biso   1.000  C
  C265     1.0000 0.15612  0.01444  0.32782  Biso   1.000  C
  C266     1.0000 0.14420  0.97421  0.35960  Biso   1.000  C
  C267     1.0000 0.14981  0.90760  0.35882  Biso   1.000  C
  C268     1.0000 0.13795  0.86985  0.38735  Biso   1.000  C
  C269     1.0000 0.11923  0.90260  0.41751  Biso   1.000  C
  C270     1.0000 0.11407  0.97040  0.41808  Biso   1.000  C
  C271     1.0000 0.12591  0.00774  0.38907  Biso   1.000  C
  C272     1.0000 0.10723  0.86365  0.44788  Biso   1.000  C
  C273     1.0000 0.09925  0.83150  0.47208  Biso   1.000  C
  C274     1.0000 0.08904  0.78930  0.50092  Biso   1.000  C
  C275     1.0000 0.09400  0.72160  0.49756  Biso   1.000  C
  C276     1.0000 0.08430  0.67960  0.52445  Biso   1.000  C
  C277     1.0000 0.07166  0.70780  0.55730  Biso   1.000  C
  C278     1.0000 0.06817  0.77570  0.56033  Biso   1.000  C
  C279     1.0000 0.07736  0.81851  0.53263  Biso   1.000  C
  C280     1.0000 0.09060  0.61520  0.52107  Biso   1.000  C
  C281     1.0000 0.09250  0.55600  0.51690  Biso   1.000  C
  C282     1.0000 0.10100  0.48330  0.50869  Biso   1.000  C
  C283     1.0000 0.13710  0.46250  0.48198  Biso   1.000  C
  C284     1.0000 0.14030  0.39710  0.47463  Biso   1.000  C
  C285     1.0000 0.10756  0.35100  0.49374  Biso   1.000  C
  C286     1.0000 0.07170  0.37170  0.52198  Biso   1.000  C
  C287     1.0000 0.06590  0.43480  0.52902  Biso   1.000  C
  C288     1.0000 0.11050  0.27770  0.48359  Biso   1.000  C
  C289     1.0000 0.05180  0.80293  0.59345  Biso   1.000  C
  C290     1.0000 0.03613  0.81853  0.62054  Biso   1.000  C
  C291     1.0000 0.01127  0.83460  0.65428  Biso   1.000  C
  C292     1.0000 0.98240  0.78370  0.67163  Biso   1.000  C
  C293     1.0000 0.95336  0.79580  0.70201  Biso   1.000  C
  C294     1.0000 0.94974  0.85740  0.71496  Biso   1.000  C
  C295     1.0000 0.98306  0.90924  0.69755  Biso   1.000  C
  C296     1.0000 0.01224  0.89790  0.66725  Biso   1.000  C
  C297     1.0000 0.91330  0.87380  0.74735  Biso   1.000  C
  C298     1.0000 0.84388  0.98556  0.82782  Biso   1.000  C
  C299     1.0000 0.85580  0.02579  0.85960  Biso   1.000  C
  C300     1.0000 0.85019  0.09240  0.85882  Biso   1.000  C
  C301     1.0000 0.86205  0.13015  0.88735  Biso   1.000  C
  C302     1.0000 0.88077  0.09740  0.91751  Biso   1.000  C
  C303     1.0000 0.88593  0.02960  0.91808  Biso   1.000  C
  C304     1.0000 0.87409  0.99226  0.88907  Biso   1.000  C
  C305     1.0000 0.89277  0.13635  0.94788  Biso   1.000  C
  C306     1.0000 0.90075  0.16850  0.97208  Biso   1.000  C
  C307     1.0000 0.91096  0.21070  0.00092  Biso   1.000  C
  C308     1.0000 0.90600  0.27840  0.99756  Biso   1.000  C
  C309     1.0000 0.91570  0.32040  0.02445  Biso   1.000  C
  C310     1.0000 0.92834  0.29220  0.05730  Biso   1.000  C
  C311     1.0000 0.93183  0.22430  0.06033  Biso   1.000  C
  C312     1.0000 0.92264  0.18149  0.03263  Biso   1.000  C
  C313     1.0000 0.90940  0.38480  0.02107  Biso   1.000  C
  C314     1.0000 0.90750  0.44400  0.01690  Biso   1.000  C
  C315     1.0000 0.89900  0.51670  0.00869  Biso   1.000  C
  C316     1.0000 0.86290  0.53750  0.98198  Biso   1.000  C
  C317     1.0000 0.85970  0.60290  0.97463  Biso   1.000  C
  C318     1.0000 0.89244  0.64900  0.99374  Biso   1.000  C
  C319     1.0000 0.92830  0.62830  0.02198  Biso   1.000  C
  C320     1.0000 0.93410  0.56520  0.02902  Biso   1.000  C
  C321     1.0000 0.88950  0.72230  0.98359  Biso   1.000  C
  C322     1.0000 0.94820  0.19707  0.09345  Biso   1.000  C
  C323     1.0000 0.96387  0.18147  0.12054  Biso   1.000  C
  C324     1.0000 0.98873  0.16540  0.15428  Biso   1.000  C
  C325     1.0000 0.01760  0.21630  0.17163  Biso   1.000  C
  C326     1.0000 0.04664  0.20420  0.20201  Biso   1.000  C
  C327     1.0000 0.05026  0.14260  0.21496  Biso   1.000  C
  C328     1.0000 0.01694  0.09076  0.19755  Biso   1.000  C
  C329     1.0000 0.98776  0.10210  0.16725  Biso   1.000  C
  C330     1.0000 0.08670  0.12620  0.24735  Biso   1.000  C
  C331     1.0000 0.01444  0.84388  0.07782  Biso   1.000  C
  C332     1.0000 0.97421  0.85580  0.10960  Biso   1.000  C
  C333     1.0000 0.90760  0.85019  0.10882  Biso   1.000  C
  C334     1.0000 0.86985  0.86205  0.13735  Biso   1.000  C
  C335     1.0000 0.90260  0.88077  0.16751  Biso   1.000  C
  C336     1.0000 0.97040  0.88593  0.16808  Biso   1.000  C
  C337     1.0000 0.00774  0.87409  0.13907  Biso   1.000  C
  C338     1.0000 0.86365  0.89277  0.19788  Biso   1.000  C
  C339     1.0000 0.83150  0.90075  0.22208  Biso   1.000  C
  C340     1.0000 0.78930  0.91096  0.25092  Biso   1.000  C
  C341     1.0000 0.72160  0.90600  0.24756  Biso   1.000  C
  C342     1.0000 0.67960  0.91570  0.27445  Biso   1.000  C
  C343     1.0000 0.70780  0.92834  0.30730  Biso   1.000  C
  C344     1.0000 0.77570  0.93183  0.31033  Biso   1.000  C
  C345     1.0000 0.81851  0.92264  0.28263  Biso   1.000  C
  C346     1.0000 0.61520  0.90940  0.27107  Biso   1.000  C
  C347     1.0000 0.55600  0.90750  0.26690  Biso   1.000  C
  C348     1.0000 0.48330  0.89900  0.25869  Biso   1.000  C
  C349     1.0000 0.46250  0.86290  0.23198  Biso   1.000  C
  C350     1.0000 0.39710  0.85970  0.22463  Biso   1.000  C
  C351     1.0000 0.35100  0.89244  0.24374  Biso   1.000  C
  C352     1.0000 0.37170  0.92830  0.27198  Biso   1.000  C
  C353     1.0000 0.43480  0.93410  0.27902  Biso   1.000  C
  C354     1.0000 0.27770  0.88950  0.23359  Biso   1.000  C
  C355     1.0000 0.80293  0.94820  0.34345  Biso   1.000  C
  C356     1.0000 0.81853  0.96387  0.37054  Biso   1.000  C
  C357     1.0000 0.83460  0.98873  0.40428  Biso   1.000  C
  C358     1.0000 0.78370  0.01760  0.42163  Biso   1.000  C
  C359     1.0000 0.79580  0.04664  0.45201  Biso   1.000  C
  C360     1.0000 0.85740  0.05026  0.46496  Biso   1.000  C
  C361     1.0000 0.90924  0.01694  0.44755  Biso   1.000  C
  C362     1.0000 0.89790  0.98776  0.41725  Biso   1.000  C
  C363     1.0000 0.87380  0.08670  0.49735  Biso   1.000  C
  C364     1.0000 0.98556  0.15612  0.57782  Biso   1.000  C
  C365     1.0000 0.02579  0.14420  0.60960  Biso   1.000  C
  C366     1.0000 0.09240  0.14981  0.60882  Biso   1.000  C
  C367     1.0000 0.13015  0.13795  0.63735  Biso   1.000  C
  C368     1.0000 0.09740  0.11923  0.66751  Biso   1.000  C
  C369     1.0000 0.02960  0.11407  0.66808  Biso   1.000  C
  C370     1.0000 0.99226  0.12591  0.63907  Biso   1.000  C
  C371     1.0000 0.13635  0.10723  0.69788  Biso   1.000  C
  C372     1.0000 0.16850  0.09925  0.72208  Biso   1.000  C
  C373     1.0000 0.21070  0.08904  0.75092  Biso   1.000  C
  C374     1.0000 0.27840  0.09400  0.74756  Biso   1.000  C
  C375     1.0000 0.32040  0.08430  0.77445  Biso   1.000  C
  C376     1.0000 0.29220  0.07166  0.80730  Biso   1.000  C
  C377     1.0000 0.22430  0.06817  0.81033  Biso   1.000  C
  C378     1.0000 0.18149  0.07736  0.78263  Biso   1.000  C
  C379     1.0000 0.38480  0.09060  0.77107  Biso   1.000  C
  C380     1.0000 0.44400  0.09250  0.76690  Biso   1.000  C
  C381     1.0000 0.51670  0.10100  0.75869  Biso   1.000  C
  C382     1.0000 0.53750  0.13710  0.73198  Biso   1.000  C
  C383     1.0000 0.60290  0.14030  0.72463  Biso   1.000  C
  C384     1.0000 0.64900  0.10756  0.74374  Biso   1.000  C
  C385     1.0000 0.62830  0.07170  0.77198  Biso   1.000  C
  C386     1.0000 0.56520  0.06590  0.77902  Biso   1.000  C
  C387     1.0000 0.72230  0.11050  0.73359  Biso   1.000  C
  C388     1.0000 0.19707  0.05180  0.84345  Biso   1.000  C
  C389     1.0000 0.18147  0.03613  0.87054  Biso   1.000  C
  C390     1.0000 0.16540  0.01127  0.90428  Biso   1.000  C
  C391     1.0000 0.21630  0.98240  0.92163  Biso   1.000  C
  C392     1.0000 0.20420  0.95336  0.95201  Biso   1.000  C
  C393     1.0000 0.14260  0.94974  0.96496  Biso   1.000  C
  C394     1.0000 0.09076  0.98306  0.94755  Biso   1.000  C
  C395     1.0000 0.10210  0.01224  0.91725  Biso   1.000  C
  C396     1.0000 0.12620  0.91330  0.99735  Biso   1.000  C
  C397     1.0000 0.83032  0.98420  0.69834  Biso   1.000  C
  C398     1.0000 0.84964  0.07614  0.66866  Biso   1.000  C
  C399     1.0000 0.85098  0.26315  0.53889  Biso   1.000  C
  C400     1.0000 0.92850  0.23936  0.49992  Biso   1.000  C
  C401     1.0000 0.10922  0.82671  0.23726  Biso   1.000  C
  C402     1.0000 0.09326  0.93080  0.24296  Biso   1.000  C
  C403     1.0000 0.16968  0.01580  0.19834  Biso   1.000  C
  C404     1.0000 0.15036  0.92386  0.16866  Biso   1.000  C
  C405     1.0000 0.14902  0.73685  0.03889  Biso   1.000  C
  C406     1.0000 0.07150  0.76064  0.99992  Biso   1.000  C
  C407     1.0000 0.89078  0.17329  0.73726  Biso   1.000  C
  C408     1.0000 0.90674  0.06920  0.74296  Biso   1.000  C
  C409     1.0000 0.01580  0.83032  0.94834  Biso   1.000  C
  C410     1.0000 0.92386  0.84964  0.91866  Biso   1.000  C
  C411     1.0000 0.73685  0.85098  0.78889  Biso   1.000  C
  C412     1.0000 0.76064  0.92850  0.74992  Biso   1.000  C
  C413     1.0000 0.17329  0.10922  0.48726  Biso   1.000  C
  C414     1.0000 0.06920  0.09326  0.49296  Biso   1.000  C
  C415     1.0000 0.98420  0.16968  0.44834  Biso   1.000  C
  C416     1.0000 0.07614  0.15036  0.41866  Biso   1.000  C
  C417     1.0000 0.26315  0.14902  0.28889  Biso   1.000  C
  C418     1.0000 0.23936  0.07150  0.24992  Biso   1.000  C
  C419     1.0000 0.82671  0.89078  0.98726  Biso   1.000  C
  C420     1.0000 0.93080  0.90674  0.99296  Biso   1.000  C
  C421     1.0000 0.16968  0.98420  0.30166  Biso   1.000  C
  C422     1.0000 0.15036  0.07614  0.33134  Biso   1.000  C
  C423     1.0000 0.14902  0.26315  0.46111  Biso   1.000  C
  C424     1.0000 0.07150  0.23936  0.50008  Biso   1.000  C
  C425     1.0000 0.89078  0.82671  0.76274  Biso   1.000  C
  C426     1.0000 0.90674  0.93080  0.75704  Biso   1.000  C
  C427     1.0000 0.83032  0.01580  0.80166  Biso   1.000  C
  C428     1.0000 0.84964  0.92386  0.83134  Biso   1.000  C
  C429     1.0000 0.85098  0.73685  0.96111  Biso   1.000  C
  C430     1.0000 0.92850  0.76064  0.00008  Biso   1.000  C
  C431     1.0000 0.10922  0.17329  0.26274  Biso   1.000  C
  C432     1.0000 0.09326  0.06920  0.25704  Biso   1.000  C
  C433     1.0000 0.98420  0.83032  0.05166  Biso   1.000  C
  C434     1.0000 0.07614  0.84964  0.08134  Biso   1.000  C
  C435     1.0000 0.26315  0.85098  0.21111  Biso   1.000  C
  C436     1.0000 0.23936  0.92850  0.25008  Biso   1.000  C
  C437     1.0000 0.82671  0.10922  0.51274  Biso   1.000  C
  C438     1.0000 0.93080  0.09326  0.50704  Biso   1.000  C
  C439     1.0000 0.01580  0.16968  0.55166  Biso   1.000  C
  C440     1.0000 0.92386  0.15036  0.58134  Biso   1.000  C
  C441     1.0000 0.73685  0.14902  0.71111  Biso   1.000  C
  C442     1.0000 0.76064  0.07150  0.75008  Biso   1.000  C
  C443     1.0000 0.17329  0.89078  0.01274  Biso   1.000  C
  C444     1.0000 0.06920  0.90674  0.00704  Biso   1.000  C
  O1       1.0000 0.34535  0.64137  0.20179  Biso   1.000  O
  O2       1.0000 0.68151  0.35051  0.70179  Biso   1.000  O
  O3       1.0000 0.36800  0.32786  0.45179  Biso   1.000  O
  O4       1.0000 0.65886  0.66402  0.95179  Biso   1.000  O
  O5       1.0000 0.68151  0.64137  0.80003  Biso   1.000  O
  O6       1.0000 0.34535  0.35051  0.30003  Biso   1.000  O
  O7       1.0000 0.65886  0.32786  0.55003  Biso   1.000  O
  O8       1.0000 0.36800  0.66402  0.05003  Biso   1.000  O
  O9       1.0000 0.34532  0.49594  0.25091  Biso   1.000  O
  O10      1.0000 0.68154  0.49594  0.75091  Biso   1.000  O
  O11      1.0000 0.51343  0.32783  0.50091  Biso   1.000  O
  O12      1.0000 0.51343  0.66405  0.00091  Biso   1.000  O
  O13      1.0000 0.35154  0.38254  0.16231  Biso   1.000  O
  O14      1.0000 0.37123  0.31964  0.11421  Biso   1.000  O
  O15      1.0000 0.41103  0.48774  0.06271  Biso   1.000  O
  O16      1.0000 0.39174  0.54984  0.11161  Biso   1.000  O
  O17      1.0000 0.40913  0.19964  0.02461  Biso   1.000  O
  O18      1.0000 0.44753  0.17644  0.92461  Biso   1.000  O
  O19      1.0000 0.43764  0.36054  0.96571  Biso   1.000  O
  O20      1.0000 0.35363  0.98914  0.03241  Biso   1.000  O
  O21      1.0000 0.34783  0.87904  0.04481  Biso   1.000  O
  O22      1.0000 0.46183  0.83614  0.96491  Biso   1.000  O
  O23      1.0000 0.47423  0.94454  0.95381  Biso   1.000  O
  O24      1.0000 0.53093  0.23674  0.83831  Biso   1.000  O
  O25      1.0000 0.57803  0.25634  0.78661  Biso   1.000  O
  O26      1.0000 0.52863  0.44754  0.79381  Biso   1.000  O
  O27      1.0000 0.48073  0.42834  0.84561  Biso   1.000  O
  O28      1.0000 0.67533  0.60934  0.66231  Biso   1.000  O
  O29      1.0000 0.65563  0.67224  0.61421  Biso   1.000  O
  O30      1.0000 0.61583  0.50414  0.56271  Biso   1.000  O
  O31      1.0000 0.63513  0.44204  0.61161  Biso   1.000  O
  O32      1.0000 0.61773  0.79224  0.52461  Biso   1.000  O
  O33      1.0000 0.57933  0.81544  0.42461  Biso   1.000  O
  O34      1.0000 0.58923  0.63134  0.46571  Biso   1.000  O
  O35      1.0000 0.67323  0.00274  0.53241  Biso   1.000  O
  O36      1.0000 0.67903  0.11284  0.54481  Biso   1.000  O
  O37      1.0000 0.56503  0.15574  0.46491  Biso   1.000  O
  O38      1.0000 0.55263  0.04734  0.45381  Biso   1.000  O
  O39      1.0000 0.49594  0.75514  0.33831  Biso   1.000  O
  O40      1.0000 0.44884  0.73554  0.28661  Biso   1.000  O
  O41      1.0000 0.49823  0.54434  0.29381  Biso   1.000  O
  O42      1.0000 0.54613  0.56354  0.34561  Biso   1.000  O
  O43      1.0000 0.62683  0.33404  0.41231  Biso   1.000  O
  O44      1.0000 0.68973  0.35374  0.36421  Biso   1.000  O
  O45      1.0000 0.52163  0.39354  0.31271  Biso   1.000  O
  O46      1.0000 0.45953  0.37424  0.36161  Biso   1.000  O
  O47      1.0000 0.80973  0.39164  0.27461  Biso   1.000  O
  O48      1.0000 0.83293  0.43004  0.17461  Biso   1.000  O
  O49      1.0000 0.64883  0.42014  0.21571  Biso   1.000  O
  O50      1.0000 0.02023  0.33614  0.28241  Biso   1.000  O
  O51      1.0000 0.13033  0.33034  0.29481  Biso   1.000  O
  O52      1.0000 0.17323  0.44434  0.21491  Biso   1.000  O
  O53      1.0000 0.06483  0.45674  0.20381  Biso   1.000  O
  O54      1.0000 0.77263  0.51344  0.08831  Biso   1.000  O
  O55      1.0000 0.75303  0.56054  0.03661  Biso   1.000  O
  O56      1.0000 0.56183  0.51114  0.04381  Biso   1.000  O
  O57      1.0000 0.58103  0.46324  0.09561  Biso   1.000  O
  O58      1.0000 0.40003  0.65784  0.91231  Biso   1.000  O
  O59      1.0000 0.33713  0.63814  0.86421  Biso   1.000  O
  O60      1.0000 0.50524  0.59834  0.81271  Biso   1.000  O
  O61      1.0000 0.56733  0.61764  0.86161  Biso   1.000  O
  O62      1.0000 0.21713  0.60024  0.77461  Biso   1.000  O
  O63      1.0000 0.19393  0.56184  0.67461  Biso   1.000  O
  O64      1.0000 0.37804  0.57174  0.71571  Biso   1.000  O
  O65      1.0000 0.00663  0.65574  0.78241  Biso   1.000  O
  O66      1.0000 0.89653  0.66154  0.79481  Biso   1.000  O
  O67      1.0000 0.85363  0.54754  0.71491  Biso   1.000  O
  O68      1.0000 0.96203  0.53514  0.70381  Biso   1.000  O
  O69      1.0000 0.25423  0.47844  0.58831  Biso   1.000  O
  O70      1.0000 0.27384  0.43134  0.53661  Biso   1.000  O
  O71      1.0000 0.46504  0.48074  0.54381  Biso   1.000  O
  O72      1.0000 0.44583  0.52864  0.59561  Biso   1.000  O
  O73      1.0000 0.67533  0.38254  0.83951  Biso   1.000  O
  O74      1.0000 0.65563  0.31964  0.88761  Biso   1.000  O
  O75      1.0000 0.61583  0.48774  0.93911  Biso   1.000  O
  O76      1.0000 0.63513  0.54984  0.89021  Biso   1.000  O
  O77      1.0000 0.61773  0.19964  0.97721  Biso   1.000  O
  O78      1.0000 0.57933  0.17644  0.07721  Biso   1.000  O
  O79      1.0000 0.58923  0.36054  0.03611  Biso   1.000  O
  O80      1.0000 0.67323  0.98914  0.96941  Biso   1.000  O
  O81      1.0000 0.67903  0.87904  0.95701  Biso   1.000  O
  O82      1.0000 0.56503  0.83614  0.03691  Biso   1.000  O
  O83      1.0000 0.55263  0.94454  0.04801  Biso   1.000  O
  O84      1.0000 0.49594  0.23674  0.16351  Biso   1.000  O
  O85      1.0000 0.44884  0.25634  0.21521  Biso   1.000  O
  O86      1.0000 0.49823  0.44754  0.20801  Biso   1.000  O
  O87      1.0000 0.54613  0.42834  0.15621  Biso   1.000  O
  O88      1.0000 0.35154  0.60934  0.33951  Biso   1.000  O
  O89      1.0000 0.37123  0.67224  0.38761  Biso   1.000  O
  O90      1.0000 0.41103  0.50414  0.43911  Biso   1.000  O
  O91      1.0000 0.39174  0.44204  0.39021  Biso   1.000  O
  O92      1.0000 0.40913  0.79224  0.47721  Biso   1.000  O
  O93      1.0000 0.44753  0.81544  0.57721  Biso   1.000  O
  O94      1.0000 0.43764  0.63134  0.53611  Biso   1.000  O
  O95      1.0000 0.35363  0.00274  0.46941  Biso   1.000  O
  O96      1.0000 0.34783  0.11284  0.45701  Biso   1.000  O
  O97      1.0000 0.46183  0.15574  0.53691  Biso   1.000  O
  O98      1.0000 0.47423  0.04734  0.54801  Biso   1.000  O
  O99      1.0000 0.53093  0.75514  0.66351  Biso   1.000  O
  O100     1.0000 0.57803  0.73554  0.71521  Biso   1.000  O
  O101     1.0000 0.52863  0.54434  0.70801  Biso   1.000  O
  O102     1.0000 0.48073  0.56354  0.65621  Biso   1.000  O
  O103     1.0000 0.40003  0.33404  0.58951  Biso   1.000  O
  O104     1.0000 0.33713  0.35374  0.63761  Biso   1.000  O
  O105     1.0000 0.50524  0.39354  0.68911  Biso   1.000  O
  O106     1.0000 0.56733  0.37424  0.64021  Biso   1.000  O
  O107     1.0000 0.21713  0.39164  0.72721  Biso   1.000  O
  O108     1.0000 0.19393  0.43004  0.82721  Biso   1.000  O
  O109     1.0000 0.37804  0.42014  0.78611  Biso   1.000  O
  O110     1.0000 0.00663  0.33614  0.71941  Biso   1.000  O
  O111     1.0000 0.89653  0.33034  0.70701  Biso   1.000  O
  O112     1.0000 0.85363  0.44434  0.78691  Biso   1.000  O
  O113     1.0000 0.96203  0.45674  0.79801  Biso   1.000  O
  O114     1.0000 0.25423  0.51344  0.91351  Biso   1.000  O
  O115     1.0000 0.27384  0.56054  0.96521  Biso   1.000  O
  O116     1.0000 0.46504  0.51114  0.95801  Biso   1.000  O
  O117     1.0000 0.44583  0.46324  0.90621  Biso   1.000  O
  O118     1.0000 0.62683  0.65784  0.08951  Biso   1.000  O
  O119     1.0000 0.68973  0.63814  0.13761  Biso   1.000  O
  O120     1.0000 0.52163  0.59834  0.18911  Biso   1.000  O
  O121     1.0000 0.45953  0.61764  0.14021  Biso   1.000  O
  O122     1.0000 0.80973  0.60024  0.22721  Biso   1.000  O
  O123     1.0000 0.83293  0.56184  0.32721  Biso   1.000  O
  O124     1.0000 0.64883  0.57174  0.28611  Biso   1.000  O
  O125     1.0000 0.02023  0.65574  0.21941  Biso   1.000  O
  O126     1.0000 0.13033  0.66154  0.20701  Biso   1.000  O
  O127     1.0000 0.17323  0.54754  0.28691  Biso   1.000  O
  O128     1.0000 0.06483  0.53514  0.29801  Biso   1.000  O
  O129     1.0000 0.77263  0.47844  0.41351  Biso   1.000  O
  O130     1.0000 0.75303  0.43134  0.46521  Biso   1.000  O
  O131     1.0000 0.56183  0.48074  0.45801  Biso   1.000  O
  O132     1.0000 0.58103  0.52864  0.40621  Biso   1.000  O
  O133     1.0000 0.35731  0.51038  0.17309  Biso   1.000  O
  O134     1.0000 0.36923  0.47015  0.14131  Biso   1.000  O
  O135     1.0000 0.36363  0.40354  0.14209  Biso   1.000  O
  O136     1.0000 0.37548  0.36579  0.11356  Biso   1.000  O
  O137     1.0000 0.39420  0.39854  0.08340  Biso   1.000  O
  O138     1.0000 0.39936  0.46634  0.08283  Biso   1.000  O
  O139     1.0000 0.38752  0.50368  0.11184  Biso   1.000  O
  O140     1.0000 0.40620  0.35959  0.05303  Biso   1.000  O
  O141     1.0000 0.41418  0.32744  0.02883  Biso   1.000  O
  O142     1.0000 0.42439  0.28524  0.99999  Biso   1.000  O
  O143     1.0000 0.41943  0.21754  0.00335  Biso   1.000  O
  O144     1.0000 0.42913  0.17554  0.97646  Biso   1.000  O
  O145     1.0000 0.44177  0.20374  0.94361  Biso   1.000  O
  O146     1.0000 0.44526  0.27164  0.94058  Biso   1.000  O
  O147     1.0000 0.43608  0.31445  0.96828  Biso   1.000  O
  O148     1.0000 0.42283  0.11114  0.97984  Biso   1.000  O
  O149     1.0000 0.42093  0.05194  0.98401  Biso   1.000  O
  O150     1.0000 0.41243  0.97924  0.99222  Biso   1.000  O
  O151     1.0000 0.37633  0.95844  0.01893  Biso   1.000  O
  O152     1.0000 0.37313  0.89304  0.02628  Biso   1.000  O
  O153     1.0000 0.40588  0.84694  0.00717  Biso   1.000  O
  O154     1.0000 0.44173  0.86764  0.97893  Biso   1.000  O
  O155     1.0000 0.44753  0.93074  0.97189  Biso   1.000  O
  O156     1.0000 0.40293  0.77364  0.01732  Biso   1.000  O
  O157     1.0000 0.46164  0.29887  0.90746  Biso   1.000  O
  O158     1.0000 0.47730  0.31447  0.88037  Biso   1.000  O
  O159     1.0000 0.50217  0.33054  0.84663  Biso   1.000  O
  O160     1.0000 0.53103  0.27964  0.82928  Biso   1.000  O
  O161     1.0000 0.56007  0.29174  0.79890  Biso   1.000  O
  O162     1.0000 0.56369  0.35334  0.78595  Biso   1.000  O
  O163     1.0000 0.53037  0.40518  0.80336  Biso   1.000  O
  O164     1.0000 0.50120  0.39384  0.83366  Biso   1.000  O
  O165     1.0000 0.60013  0.36974  0.75356  Biso   1.000  O
  O166     1.0000 0.66955  0.48150  0.67309  Biso   1.000  O
  O167     1.0000 0.65763  0.52173  0.64131  Biso   1.000  O
  O168     1.0000 0.66324  0.58834  0.64209  Biso   1.000  O
  O169     1.0000 0.65138  0.62609  0.61356  Biso   1.000  O
  O170     1.0000 0.63266  0.59334  0.58340  Biso   1.000  O
  O171     1.0000 0.62750  0.52554  0.58283  Biso   1.000  O
  O172     1.0000 0.63934  0.48820  0.61184  Biso   1.000  O
  O173     1.0000 0.62066  0.63229  0.55303  Biso   1.000  O
  O174     1.0000 0.61268  0.66444  0.52883  Biso   1.000  O
  O175     1.0000 0.60247  0.70664  0.49999  Biso   1.000  O
  O176     1.0000 0.60743  0.77434  0.50335  Biso   1.000  O
  O177     1.0000 0.59773  0.81634  0.47646  Biso   1.000  O
  O178     1.0000 0.58509  0.78814  0.44361  Biso   1.000  O
  O179     1.0000 0.58160  0.72024  0.44058  Biso   1.000  O
  O180     1.0000 0.59079  0.67743  0.46828  Biso   1.000  O
  O181     1.0000 0.60403  0.88074  0.47984  Biso   1.000  O
  O182     1.0000 0.60593  0.93994  0.48401  Biso   1.000  O
  O183     1.0000 0.61443  0.01264  0.49222  Biso   1.000  O
  O184     1.0000 0.65053  0.03344  0.51893  Biso   1.000  O
  O185     1.0000 0.65373  0.09884  0.52628  Biso   1.000  O
  O186     1.0000 0.62099  0.14494  0.50717  Biso   1.000  O
  O187     1.0000 0.58513  0.12424  0.47893  Biso   1.000  O
  O188     1.0000 0.57933  0.06114  0.47189  Biso   1.000  O
  O189     1.0000 0.62393  0.21824  0.51732  Biso   1.000  O
  O190     1.0000 0.56523  0.69301  0.40746  Biso   1.000  O
  O191     1.0000 0.54956  0.67741  0.38037  Biso   1.000  O
  O192     1.0000 0.52470  0.66134  0.34663  Biso   1.000  O
  O193     1.0000 0.49583  0.71224  0.32928  Biso   1.000  O
  O194     1.0000 0.46679  0.70014  0.29890  Biso   1.000  O
  O195     1.0000 0.46317  0.63854  0.28595  Biso   1.000  O
  O196     1.0000 0.49650  0.58670  0.30336  Biso   1.000  O
  O197     1.0000 0.52567  0.59804  0.33366  Biso   1.000  O
  O198     1.0000 0.42673  0.62214  0.25356  Biso   1.000  O
  O199     1.0000 0.49900  0.33982  0.42309  Biso   1.000  O
  O200     1.0000 0.53922  0.35174  0.39131  Biso   1.000  O
  O201     1.0000 0.60583  0.34613  0.39209  Biso   1.000  O
  O202     1.0000 0.64358  0.35799  0.36356  Biso   1.000  O
  O203     1.0000 0.61083  0.37671  0.33340  Biso   1.000  O
  O204     1.0000 0.54303  0.38187  0.33283  Biso   1.000  O
  O205     1.0000 0.50569  0.37003  0.36184  Biso   1.000  O
  O206     1.0000 0.64978  0.38871  0.30303  Biso   1.000  O
  O207     1.0000 0.68193  0.39669  0.27883  Biso   1.000  O
  O208     1.0000 0.72413  0.40690  0.24999  Biso   1.000  O
  O209     1.0000 0.79183  0.40194  0.25335  Biso   1.000  O
  O210     1.0000 0.83383  0.41164  0.22646  Biso   1.000  O
  O211     1.0000 0.80563  0.42428  0.19361  Biso   1.000  O
  O212     1.0000 0.73773  0.42777  0.19058  Biso   1.000  O
  O213     1.0000 0.69492  0.41858  0.21828  Biso   1.000  O
  O214     1.0000 0.89823  0.40534  0.22984  Biso   1.000  O
  O215     1.0000 0.95743  0.40344  0.23401  Biso   1.000  O
  O216     1.0000 0.03013  0.39494  0.24222  Biso   1.000  O
  O217     1.0000 0.05093  0.35884  0.26893  Biso   1.000  O
  O218     1.0000 0.11633  0.35564  0.27628  Biso   1.000  O
  O219     1.0000 0.16243  0.38838  0.25717  Biso   1.000  O
  O220     1.0000 0.14173  0.42424  0.22893  Biso   1.000  O
  O221     1.0000 0.07863  0.43004  0.22189  Biso   1.000  O
  O222     1.0000 0.23573  0.38544  0.26732  Biso   1.000  O
  O223     1.0000 0.71050  0.44414  0.15746  Biso   1.000  O
  O224     1.0000 0.69490  0.45981  0.13037  Biso   1.000  O
  O225     1.0000 0.67883  0.48467  0.09663  Biso   1.000  O
  O226     1.0000 0.72973  0.51354  0.07928  Biso   1.000  O
  O227     1.0000 0.71763  0.54258  0.04890  Biso   1.000  O
  O228     1.0000 0.65603  0.54620  0.03595  Biso   1.000  O
  O229     1.0000 0.60419  0.51288  0.05336  Biso   1.000  O
  O230     1.0000 0.61553  0.48370  0.08366  Biso   1.000  O
  O231     1.0000 0.63963  0.58264  0.00356  Biso   1.000  O
  O232     1.0000 0.52787  0.65206  0.92309  Biso   1.000  O
  O233     1.0000 0.48764  0.64014  0.89131  Biso   1.000  O
  O234     1.0000 0.42104  0.64575  0.89209  Biso   1.000  O
  O235     1.0000 0.38328  0.63389  0.86356  Biso   1.000  O
  O236     1.0000 0.41603  0.61517  0.83340  Biso   1.000  O
  O237     1.0000 0.48383  0.61001  0.83283  Biso   1.000  O
  O238     1.0000 0.52117  0.62185  0.86184  Biso   1.000  O
  O239     1.0000 0.37708  0.60317  0.80303  Biso   1.000  O
  O240     1.0000 0.34493  0.59519  0.77883  Biso   1.000  O
  O241     1.0000 0.30273  0.58498  0.74999  Biso   1.000  O
  O242     1.0000 0.23503  0.58994  0.75335  Biso   1.000  O
  O243     1.0000 0.19303  0.58024  0.72646  Biso   1.000  O
  O244     1.0000 0.22123  0.56760  0.69361  Biso   1.000  O
  O245     1.0000 0.28913  0.56411  0.69058  Biso   1.000  O
  O246     1.0000 0.33195  0.57330  0.71828  Biso   1.000  O
  O247     1.0000 0.12863  0.58654  0.72984  Biso   1.000  O
  O248     1.0000 0.06943  0.58844  0.73401  Biso   1.000  O
  O249     1.0000 0.99673  0.59694  0.74222  Biso   1.000  O
  O250     1.0000 0.97593  0.63304  0.76893  Biso   1.000  O
  O251     1.0000 0.91053  0.63624  0.77628  Biso   1.000  O
  O252     1.0000 0.86443  0.60350  0.75717  Biso   1.000  O
  O253     1.0000 0.88513  0.56764  0.72893  Biso   1.000  O
  O254     1.0000 0.94823  0.56184  0.72189  Biso   1.000  O
  O255     1.0000 0.79113  0.60644  0.76732  Biso   1.000  O
  O256     1.0000 0.31636  0.54774  0.65746  Biso   1.000  O
  O257     1.0000 0.33196  0.53207  0.63037  Biso   1.000  O
  O258     1.0000 0.34803  0.50721  0.59663  Biso   1.000  O
  O259     1.0000 0.29713  0.47834  0.57928  Biso   1.000  O
  O260     1.0000 0.30923  0.44930  0.54890  Biso   1.000  O
  O261     1.0000 0.37084  0.44568  0.53595  Biso   1.000  O
  O262     1.0000 0.42268  0.47900  0.55336  Biso   1.000  O
  O263     1.0000 0.41133  0.50818  0.58366  Biso   1.000  O
  O264     1.0000 0.38723  0.40924  0.50356  Biso   1.000  O
  O265     1.0000 0.66955  0.51038  0.82873  Biso   1.000  O
  O266     1.0000 0.65763  0.47015  0.86051  Biso   1.000  O
  O267     1.0000 0.66324  0.40354  0.85973  Biso   1.000  O
  O268     1.0000 0.65138  0.36579  0.88826  Biso   1.000  O
  O269     1.0000 0.63266  0.39854  0.91842  Biso   1.000  O
  O270     1.0000 0.62750  0.46634  0.91899  Biso   1.000  O
  O271     1.0000 0.63934  0.50368  0.88998  Biso   1.000  O
  O272     1.0000 0.62066  0.35959  0.94879  Biso   1.000  O
  O273     1.0000 0.61268  0.32744  0.97299  Biso   1.000  O
  O274     1.0000 0.60247  0.28524  0.00183  Biso   1.000  O
  O275     1.0000 0.60743  0.21754  0.99847  Biso   1.000  O
  O276     1.0000 0.59773  0.17554  0.02536  Biso   1.000  O
  O277     1.0000 0.58509  0.20374  0.05821  Biso   1.000  O
  O278     1.0000 0.58160  0.27164  0.06124  Biso   1.000  O
  O279     1.0000 0.59079  0.31445  0.03354  Biso   1.000  O
  O280     1.0000 0.60403  0.11114  0.02198  Biso   1.000  O
  O281     1.0000 0.60593  0.05194  0.01781  Biso   1.000  O
  O282     1.0000 0.61443  0.97924  0.00960  Biso   1.000  O
  O283     1.0000 0.65053  0.95844  0.98289  Biso   1.000  O
  O284     1.0000 0.65373  0.89304  0.97554  Biso   1.000  O
  O285     1.0000 0.62099  0.84694  0.99465  Biso   1.000  O
  O286     1.0000 0.58513  0.86764  0.02289  Biso   1.000  O
  O287     1.0000 0.57933  0.93074  0.02993  Biso   1.000  O
  O288     1.0000 0.62393  0.77364  0.98450  Biso   1.000  O
  O289     1.0000 0.56523  0.29887  0.09436  Biso   1.000  O
  O290     1.0000 0.54956  0.31447  0.12145  Biso   1.000  O
  O291     1.0000 0.52470  0.33054  0.15519  Biso   1.000  O
  O292     1.0000 0.49583  0.27964  0.17254  Biso   1.000  O
  O293     1.0000 0.46679  0.29174  0.20292  Biso   1.000  O
  O294     1.0000 0.46317  0.35334  0.21587  Biso   1.000  O
  O295     1.0000 0.49650  0.40518  0.19846  Biso   1.000  O
  O296     1.0000 0.52567  0.39384  0.16816  Biso   1.000  O
  O297     1.0000 0.42673  0.36974  0.24826  Biso   1.000  O
  O298     1.0000 0.35731  0.48150  0.32873  Biso   1.000  O
  O299     1.0000 0.36923  0.52173  0.36051  Biso   1.000  O
  O300     1.0000 0.36363  0.58834  0.35973  Biso   1.000  O
  O301     1.0000 0.37548  0.62609  0.38826  Biso   1.000  O
  O302     1.0000 0.39420  0.59334  0.41842  Biso   1.000  O
  O303     1.0000 0.39936  0.52554  0.41899  Biso   1.000  O
  O304     1.0000 0.38752  0.48820  0.38998  Biso   1.000  O
  O305     1.0000 0.40620  0.63229  0.44879  Biso   1.000  O
  O306     1.0000 0.41418  0.66444  0.47299  Biso   1.000  O
  O307     1.0000 0.42439  0.70664  0.50183  Biso   1.000  O
  O308     1.0000 0.41943  0.77434  0.49847  Biso   1.000  O
  O309     1.0000 0.42913  0.81634  0.52536  Biso   1.000  O
  O310     1.0000 0.44177  0.78814  0.55821  Biso   1.000  O
  O311     1.0000 0.44526  0.72024  0.56124  Biso   1.000  O
  O312     1.0000 0.43608  0.67743  0.53354  Biso   1.000  O
  O313     1.0000 0.42283  0.88074  0.52198  Biso   1.000  O
  O314     1.0000 0.42093  0.93994  0.51781  Biso   1.000  O
  O315     1.0000 0.41243  0.01264  0.50960  Biso   1.000  O
  O316     1.0000 0.37633  0.03344  0.48289  Biso   1.000  O
  O317     1.0000 0.37313  0.09884  0.47554  Biso   1.000  O
  O318     1.0000 0.40588  0.14494  0.49465  Biso   1.000  O
  O319     1.0000 0.44173  0.12424  0.52289  Biso   1.000  O
  O320     1.0000 0.44753  0.06114  0.52993  Biso   1.000  O
  O321     1.0000 0.40293  0.21824  0.48450  Biso   1.000  O
  O322     1.0000 0.46164  0.69301  0.59436  Biso   1.000  O
  O323     1.0000 0.47730  0.67741  0.62145  Biso   1.000  O
  O324     1.0000 0.50217  0.66134  0.65519  Biso   1.000  O
  O325     1.0000 0.53103  0.71224  0.67254  Biso   1.000  O
  O326     1.0000 0.56007  0.70014  0.70292  Biso   1.000  O
  O327     1.0000 0.56369  0.63854  0.71587  Biso   1.000  O
  O328     1.0000 0.53037  0.58670  0.69846  Biso   1.000  O
  O329     1.0000 0.50120  0.59804  0.66816  Biso   1.000  O
  O330     1.0000 0.60013  0.62214  0.74826  Biso   1.000  O
  O331     1.0000 0.52787  0.33982  0.57873  Biso   1.000  O
  O332     1.0000 0.48764  0.35174  0.61051  Biso   1.000  O
  O333     1.0000 0.42104  0.34613  0.60973  Biso   1.000  O
  O334     1.0000 0.38328  0.35799  0.63826  Biso   1.000  O
  O335     1.0000 0.41603  0.37671  0.66842  Biso   1.000  O
  O336     1.0000 0.48383  0.38187  0.66899  Biso   1.000  O
  O337     1.0000 0.52117  0.37003  0.63998  Biso   1.000  O
  O338     1.0000 0.37708  0.38871  0.69879  Biso   1.000  O
  O339     1.0000 0.34493  0.39669  0.72299  Biso   1.000  O
  O340     1.0000 0.30273  0.40690  0.75183  Biso   1.000  O
  O341     1.0000 0.23503  0.40194  0.74847  Biso   1.000  O
  O342     1.0000 0.19303  0.41164  0.77536  Biso   1.000  O
  O343     1.0000 0.22123  0.42428  0.80821  Biso   1.000  O
  O344     1.0000 0.28913  0.42777  0.81124  Biso   1.000  O
  O345     1.0000 0.33195  0.41858  0.78354  Biso   1.000  O
  O346     1.0000 0.12863  0.40534  0.77198  Biso   1.000  O
  O347     1.0000 0.06943  0.40344  0.76781  Biso   1.000  O
  O348     1.0000 0.99673  0.39494  0.75960  Biso   1.000  O
  O349     1.0000 0.97593  0.35884  0.73289  Biso   1.000  O
  O350     1.0000 0.91053  0.35564  0.72554  Biso   1.000  O
  O351     1.0000 0.86443  0.38838  0.74465  Biso   1.000  O
  O352     1.0000 0.88513  0.42424  0.77289  Biso   1.000  O
  O353     1.0000 0.94823  0.43004  0.77993  Biso   1.000  O
  O354     1.0000 0.79113  0.38544  0.73450  Biso   1.000  O
  O355     1.0000 0.31636  0.44414  0.84436  Biso   1.000  O
  O356     1.0000 0.33196  0.45981  0.87145  Biso   1.000  O
  O357     1.0000 0.34803  0.48467  0.90519  Biso   1.000  O
  O358     1.0000 0.29713  0.51354  0.92254  Biso   1.000  O
  O359     1.0000 0.30923  0.54258  0.95292  Biso   1.000  O
  O360     1.0000 0.37084  0.54620  0.96587  Biso   1.000  O
  O361     1.0000 0.42268  0.51288  0.94846  Biso   1.000  O
  O362     1.0000 0.41133  0.48370  0.91816  Biso   1.000  O
  O363     1.0000 0.38723  0.58264  0.99826  Biso   1.000  O
  O364     1.0000 0.49900  0.65206  0.07873  Biso   1.000  O
  O365     1.0000 0.53922  0.64014  0.11051  Biso   1.000  O
  O366     1.0000 0.60583  0.64575  0.10973  Biso   1.000  O
  O367     1.0000 0.64358  0.63389  0.13826  Biso   1.000  O
  O368     1.0000 0.61083  0.61517  0.16842  Biso   1.000  O
  O369     1.0000 0.54303  0.61001  0.16899  Biso   1.000  O
  O370     1.0000 0.50569  0.62185  0.13998  Biso   1.000  O
  O371     1.0000 0.64978  0.60317  0.19879  Biso   1.000  O
  O372     1.0000 0.68193  0.59519  0.22299  Biso   1.000  O
  O373     1.0000 0.72413  0.58498  0.25183  Biso   1.000  O
  O374     1.0000 0.79183  0.58994  0.24847  Biso   1.000  O
  O375     1.0000 0.83383  0.58024  0.27536  Biso   1.000  O
  O376     1.0000 0.80563  0.56760  0.30821  Biso   1.000  O
  O377     1.0000 0.73773  0.56411  0.31124  Biso   1.000  O
  O378     1.0000 0.69492  0.57330  0.28354  Biso   1.000  O
  O379     1.0000 0.89823  0.58654  0.27198  Biso   1.000  O
  O380     1.0000 0.95743  0.58844  0.26781  Biso   1.000  O
  O381     1.0000 0.03013  0.59694  0.25960  Biso   1.000  O
  O382     1.0000 0.05093  0.63304  0.23289  Biso   1.000  O
  O383     1.0000 0.11633  0.63624  0.22554  Biso   1.000  O
  O384     1.0000 0.16243  0.60350  0.24465  Biso   1.000  O
  O385     1.0000 0.14173  0.56764  0.27289  Biso   1.000  O
  O386     1.0000 0.07863  0.56184  0.27993  Biso   1.000  O
  O387     1.0000 0.23573  0.60644  0.23450  Biso   1.000  O
  O388     1.0000 0.71050  0.54774  0.34436  Biso   1.000  O
  O389     1.0000 0.69490  0.53207  0.37145  Biso   1.000  O
  O390     1.0000 0.67883  0.50721  0.40519  Biso   1.000  O
  O391     1.0000 0.72973  0.47834  0.42254  Biso   1.000  O
  O392     1.0000 0.71763  0.44930  0.45292  Biso   1.000  O
  O393     1.0000 0.65603  0.44568  0.46587  Biso   1.000  O
  O394     1.0000 0.60419  0.47900  0.44846  Biso   1.000  O
  O395     1.0000 0.61553  0.50818  0.41816  Biso   1.000  O
  O396     1.0000 0.63963  0.40924  0.49826  Biso   1.000  O
  O397     1.0000 0.34375  0.48014  0.19925  Biso   1.000  O
  O398     1.0000 0.36307  0.57208  0.16957  Biso   1.000  O
  O399     1.0000 0.36442  0.75909  0.03980  Biso   1.000  O
  O400     1.0000 0.44194  0.73530  0.00083  Biso   1.000  O
  O401     1.0000 0.62265  0.32265  0.73817  Biso   1.000  O
  O402     1.0000 0.60669  0.42674  0.74387  Biso   1.000  O
  O403     1.0000 0.68311  0.51174  0.69925  Biso   1.000  O
  O404     1.0000 0.66379  0.41980  0.66957  Biso   1.000  O
  O405     1.0000 0.66245  0.23279  0.53980  Biso   1.000  O
  O406     1.0000 0.58493  0.25658  0.50083  Biso   1.000  O
  O407     1.0000 0.40421  0.66923  0.23817  Biso   1.000  O
  O408     1.0000 0.42018  0.56514  0.24387  Biso   1.000  O
  O409     1.0000 0.52923  0.32626  0.44925  Biso   1.000  O
  O410     1.0000 0.43729  0.34558  0.41957  Biso   1.000  O
  O411     1.0000 0.25028  0.34692  0.28980  Biso   1.000  O
  O412     1.0000 0.27407  0.42444  0.25083  Biso   1.000  O
  O413     1.0000 0.68672  0.60516  0.98817  Biso   1.000  O
  O414     1.0000 0.58263  0.58920  0.99387  Biso   1.000  O
  O415     1.0000 0.49763  0.66562  0.94925  Biso   1.000  O
  O416     1.0000 0.58957  0.64630  0.91957  Biso   1.000  O
  O417     1.0000 0.77658  0.64496  0.78980  Biso   1.000  O
  O418     1.0000 0.75279  0.56744  0.75083  Biso   1.000  O
  O419     1.0000 0.34014  0.38672  0.48817  Biso   1.000  O
  O420     1.0000 0.44423  0.40268  0.49387  Biso   1.000  O
  O421     1.0000 0.68311  0.48014  0.80257  Biso   1.000  O
  O422     1.0000 0.66379  0.57208  0.83225  Biso   1.000  O
  O423     1.0000 0.66245  0.75909  0.96202  Biso   1.000  O
  O424     1.0000 0.58493  0.73530  0.00099  Biso   1.000  O
  O425     1.0000 0.40421  0.32265  0.26365  Biso   1.000  O
  O426     1.0000 0.42018  0.42674  0.25795  Biso   1.000  O
  O427     1.0000 0.34375  0.51174  0.30257  Biso   1.000  O
  O428     1.0000 0.36307  0.41980  0.33225  Biso   1.000  O
  O429     1.0000 0.36442  0.23279  0.46202  Biso   1.000  O
  O430     1.0000 0.44194  0.25658  0.50099  Biso   1.000  O
  O431     1.0000 0.62265  0.66923  0.76365  Biso   1.000  O
  O432     1.0000 0.60669  0.56514  0.75795  Biso   1.000  O
  O433     1.0000 0.49763  0.32626  0.55257  Biso   1.000  O
  O434     1.0000 0.58957  0.34558  0.58225  Biso   1.000  O
  O435     1.0000 0.77658  0.34692  0.71202  Biso   1.000  O
  O436     1.0000 0.75279  0.42444  0.75099  Biso   1.000  O
  O437     1.0000 0.34014  0.60516  0.01365  Biso   1.000  O
  O438     1.0000 0.44423  0.58920  0.00795  Biso   1.000  O
  O439     1.0000 0.52923  0.66562  0.05257  Biso   1.000  O
  O440     1.0000 0.43729  0.64630  0.08225  Biso   1.000  O
  O441     1.0000 0.25028  0.64496  0.21202  Biso   1.000  O
  O442     1.0000 0.27407  0.56744  0.25099  Biso   1.000  O
  O443     1.0000 0.68672  0.38672  0.51365  Biso   1.000  O
